/COM,CDB format Rev 5.5 created by Autodesk Algor FEA Translation Utility	Version 2017.00-WIN  10-Mar-2016
/PREP7
/NOPR
/TITLE,C:\Users\ivana\Documents\beam.ds_data\1\ds
NUMOFF,NODE,  1653
NUMOFF,ELEM,  4788
NUMOFF,MAT ,     1
NUMOFF,TYPE,     1
MP,ALPX,1,1.1700000E-05
MP,ALPY,1,1.1700000E-05
MP,ALPZ,1,1.1700000E-05
MP,DENS,1,7.8548680E+03
MP,KXX,1,4.6759706E+01
MP,EX,1,1.9994796E+11
MP,EY,1,1.9994796E+11
MP,EZ,1,1.9994796E+11
MP,PRXY,1,2.9000000E-01
MP,PRYZ,1,2.9000000E-01
MP,PRXZ,1,2.9000000E-01
ET,1,SOLID72
N,R5.0,LOC,1,181.102,-2858.29,-1738.44
N,R5.0,LOC,2,181.102,-2858.29,-1653.28
N,R5.0,LOC,3,181.102,-358.288,-1653.28
N,R5.0,LOC,4,181.102,-358.288,-1738.44
N,R5.0,LOC,5,168.339,-358.288,-1751.2
N,R5.0,LOC,6,168.339,-2858.29,-1751.2
N,R5.0,LOC,7,12.7635,-358.288,-1751.2
N,R5.0,LOC,8,12.7635,-2858.29,-1751.2
N,R5.0,LOC,9,1.13687e-12,-358.288,-1738.44
N,R5.0,LOC,10,0,-2858.29,-1738.44
N,R5.0,LOC,11,1.13687e-12,-358.288,-1653.28
N,R5.0,LOC,12,0,-2858.29,-1653.28
N,R5.0,LOC,13,-14.224,-358.288,-1653.28
N,R5.0,LOC,14,-14.224,-2858.29,-1653.28
N,R5.0,LOC,15,-14.224,-358.288,-1858.26
N,R5.0,LOC,16,-14.224,-2858.29,-1858.26
N,R5.0,LOC,17,1.13687e-12,-358.288,-1858.26
N,R5.0,LOC,18,0,-2858.29,-1858.26
N,R5.0,LOC,19,1.13687e-12,-358.288,-1773.11
N,R5.0,LOC,20,0,-2858.29,-1773.11
! ... 1633 like lines cut
MAT, 1, TYPE, 1, REAL, 1
EN,R5.0,ATTR,4,1,1,1,1
EN,R5.0,NODE,12,14,356,1628
EN,R5.0,ATTR,4,1,1,1,2
EN,R5.0,NODE,12,398,14,1628
EN,R5.0,ATTR,4,1,1,1,3
EN,R5.0,NODE,14,398,356,1628
EN,R5.0,ATTR,4,1,1,1,4
EN,R5.0,NODE,356,1119,318,1628
EN,R5.0,ATTR,4,1,1,1,5
EN,R5.0,NODE,356,398,1119,1628
EN,R5.0,ATTR,4,1,1,1,6
EN,R5.0,NODE,356,1068,318,1119
EN,R5.0,ATTR,4,1,1,1,7
EN,R5.0,NODE,279,1119,398,1628
EN,R5.0,ATTR,4,1,1,1,8
EN,R5.0,NODE,8,539,22,1629
EN,R5.0,ATTR,4,1,1,1,9
EN,R5.0,NODE,1629,1119,486,1118
EN,R5.0,ATTR,4,1,1,1,10
EN,R5.0,NODE,398,279,10,1629
EN,R5.0,ATTR,4,1,1,1,11
EN,R5.0,NODE,397,1119,1629,1118
EN,R5.0,ATTR,4,1,1,1,12
EN,R5.0,NODE,8,226,539,1629
EN,R5.0,ATTR,4,1,1,1,13
EN,R5.0,NODE,1637,1429,1001,1430
EN,R5.0,ATTR,4,1,1,1,14
EN,R5.0,NODE,1629,1119,398,279
EN,R5.0,ATTR,4,1,1,1,15
EN,R5.0,NODE,398,1629,10,1624
EN,R5.0,ATTR,4,1,1,1,16
EN,R5.0,NODE,22,539,540,1629
EN,R5.0,ATTR,4,1,1,1,17
EN,R5.0,NODE,22,540,280,1629
EN,R5.0,ATTR,4,1,1,1,18
EN,R5.0,NODE,5,1345,542,123
EN,R5.0,ATTR,4,1,1,1,19
EN,R5.0,NODE,123,916,5,1345
EN,R5.0,ATTR,4,1,1,1,20
EN,R5.0,NODE,23,1345,542,5
! ... 9536 like lines cut
SFE,40,4,PRES,1,R5.0
            1000
SFE,41,4,PRES,1,R5.0
            1000
SFE,107,2,PRES,1,R5.0
            1000
SFE,214,3,PRES,1,R5.0
            1000
SFE,320,3,PRES,1,R5.0
            1000
SFE,464,1,PRES,1,R5.0
            1000
SFE,531,1,PRES,1,R5.0
            1000
SFE,727,3,PRES,1,R5.0
            1000
SFE,731,1,PRES,1,R5.0
            1000
SFE,785,3,PRES,1,R5.0
            1000
SFE,843,3,PRES,1,R5.0
            1000
SFE,898,4,PRES,1,R5.0
            1000
SFE,924,4,PRES,1,R5.0
            1000
SFE,931,4,PRES,1,R5.0
            1000
SFE,971,3,PRES,1,R5.0
            1000
SFE,1389,4,PRES,1,R5.0
            1000
SFE,1889,3,PRES,1,R5.0
            1000
SFE,1976,4,PRES,1,R5.0
            1000
SFE,1985,4,PRES,1,R5.0
            1000
SFE,1991,4,PRES,1,R5.0
            1000
! ... 428 like lines cut
D,1,UX,0.0
D,1,UY,0.0
D,1,UZ,0.0
D,2,UX,0.0
D,2,UY,0.0
D,2,UZ,0.0
D,3,UX,0.0
D,3,UY,0.0
D,3,UZ,0.0
D,4,UX,0.0
D,4,UY,0.0
D,4,UZ,0.0
D,5,UX,0.0
D,5,UY,0.0
D,5,UZ,0.0
D,6,UX,0.0
D,6,UY,0.0
D,6,UZ,0.0
D,7,UX,0.0
D,7,UY,0.0
D,7,UZ,0.0
D,8,UX,0.0
D,8,UY,0.0
D,8,UZ,0.0
D,9,UX,0.0
D,9,UY,0.0
D,9,UZ,0.0
D,10,UX,0.0
D,10,UY,0.0
D,10,UZ,0.0
D,11,UX,0.0
D,11,UY,0.0
D,11,UZ,0.0
D,12,UX,0.0
D,12,UY,0.0
D,12,UZ,0.0
D,13,UX,0.0
D,13,UY,0.0
D,13,UZ,0.0
D,14,UX,0.0
D,14,UY,0.0
D,14,UZ,0.0
D,15,UX,0.0
D,15,UY,0.0
D,15,UZ,0.0
D,16,UX,0.0
D,16,UY,0.0
D,16,UZ,0.0
D,17,UX,0.0
D,17,UY,0.0
D,17,UZ,0.0
D,18,UX,0.0
D,18,UY,0.0
D,18,UZ,0.0
D,19,UX,0.0
D,19,UY,0.0
D,19,UZ,0.0
D,20,UX,0.0
D,20,UY,0.0
D,20,UZ,0.0
! ... 114 like lines cut
