/COM,CDB format Rev 5.5 created by Autodesk Algor FEA Translation Utility	Version 2017.00-WIN  10-Mar-2016
/PREP7
/NOPR
/TITLE,C:\Users\ivana\Documents\connection_v2.ds_data\1\ds
NUMOFF,NODE,  1815
NUMOFF,ELEM,  6681
NUMOFF,MAT ,     1
NUMOFF,TYPE,     1
MP,ALPX,1,1.1700000E-05
MP,ALPY,1,1.1700000E-05
MP,ALPZ,1,1.1700000E-05
MP,DENS,1,7.8548680E-09
MP,KXX,1,4.6759706E-02
MP,EX,1,1.9994796E+05
MP,EY,1,1.9994796E+05
MP,EZ,1,1.9994796E+05
MP,PRXY,1,2.9000000E-01
MP,PRYZ,1,2.9000000E-01
MP,PRXZ,1,2.9000000E-01
ET,1,SOLID72
N,R5.0,LOC,1,75,15.005,105
N,R5.0,LOC,2,50,15.005,105
N,R5.0,LOC,3,75,-15.005,105
N,R5.0,LOC,4,50,-15.005,105
N,R5.0,LOC,5,75,-40,32
N,R5.0,LOC,6,75,40,32
N,R5.0,LOC,7,75,40,120
N,R5.0,LOC,8,75,15,145
N,R5.0,LOC,9,75,-15,145
N,R5.0,LOC,10,75,-40,120
N,R5.0,LOC,11,-50,15.005,105
N,R5.0,LOC,12,-75,15.005,105
N,R5.0,LOC,13,-50,-15.005,105
N,R5.0,LOC,14,-75,-15.005,105
N,R5.0,LOC,15,-50,-40,32
N,R5.0,LOC,16,-50,40,32
N,R5.0,LOC,17,-50,40,120
N,R5.0,LOC,18,-50,15,145
N,R5.0,LOC,19,-50,-15,145
N,R5.0,LOC,20,-50,-40,120
! ... 1795 like lines cut
MAT, 1, TYPE, 1, REAL, 1
EN,R5.0,ATTR,4,1,1,1,1
EN,R5.0,NODE,283,1460,1443,1290
EN,R5.0,ATTR,4,1,1,1,2
EN,R5.0,NODE,1686,1352,1290,1306
EN,R5.0,ATTR,4,1,1,1,3
EN,R5.0,NODE,1524,1460,1327,1290
EN,R5.0,ATTR,4,1,1,1,4
EN,R5.0,NODE,1584,1352,1306,1290
EN,R5.0,ATTR,4,1,1,1,5
EN,R5.0,NODE,1709,1584,1290,1352
EN,R5.0,ATTR,4,1,1,1,6
EN,R5.0,NODE,1524,1364,1290,1709
EN,R5.0,ATTR,4,1,1,1,7
EN,R5.0,NODE,1709,1584,1364,1290
EN,R5.0,ATTR,4,1,1,1,8
EN,R5.0,NODE,890,1425,1569,1291
EN,R5.0,ATTR,4,1,1,1,9
EN,R5.0,NODE,1633,890,354,1569
EN,R5.0,ATTR,4,1,1,1,10
EN,R5.0,NODE,1008,1009,1372,1483
EN,R5.0,ATTR,4,1,1,1,11
EN,R5.0,NODE,1008,1372,1291,1483
EN,R5.0,ATTR,4,1,1,1,12
EN,R5.0,NODE,332,1483,1499,1425
EN,R5.0,ATTR,4,1,1,1,13
EN,R5.0,NODE,386,911,1483,1291
EN,R5.0,ATTR,4,1,1,1,14
EN,R5.0,NODE,1804,1605,1422,1292
EN,R5.0,ATTR,4,1,1,1,15
EN,R5.0,NODE,1065,1156,1507,1292
EN,R5.0,ATTR,4,1,1,1,16
EN,R5.0,NODE,1507,1422,1434,1292
EN,R5.0,ATTR,4,1,1,1,17
EN,R5.0,NODE,1065,1507,1434,1292
EN,R5.0,ATTR,4,1,1,1,18
EN,R5.0,NODE,608,1449,1494,1293
EN,R5.0,ATTR,4,1,1,1,19
EN,R5.0,NODE,608,1494,917,1293
EN,R5.0,ATTR,4,1,1,1,20
EN,R5.0,NODE,999,1000,1301,1293
! ... 13322 like lines cut
SFE,1740,4,PRES,1,R5.0
             100
SFE,3876,4,PRES,1,R5.0
             100
SFE,4076,3,PRES,1,R5.0
             100
SFE,4077,2,PRES,1,R5.0
             100
SFE,4087,4,PRES,1,R5.0
             100
SFE,4225,2,PRES,1,R5.0
             100
SFE,4234,4,PRES,1,R5.0
             100
SFE,4241,2,PRES,1,R5.0
             100
SFE,4244,3,PRES,1,R5.0
             100
SFE,4245,3,PRES,1,R5.0
             100
SFE,5041,4,PRES,1,R5.0
             100
SFE,5049,4,PRES,1,R5.0
             100
SFE,5096,2,PRES,1,R5.0
             100
SFE,5265,4,PRES,1,R5.0
             100
SFE,5287,2,PRES,1,R5.0
             100
SFE,5331,3,PRES,1,R5.0
             100
SFE,5354,3,PRES,1,R5.0
             100
SFE,5364,4,PRES,1,R5.0
             100
SFE,5432,3,PRES,1,R5.0
             100
SFE,5455,4,PRES,1,R5.0
             100
! ... 24 like lines cut
D,53,UX,0.0
D,53,UY,0.0
D,53,UZ,0.0
D,54,UX,0.0
D,54,UY,0.0
D,54,UZ,0.0
D,55,UX,0.0
D,55,UY,0.0
D,55,UZ,0.0
D,56,UX,0.0
D,56,UY,0.0
D,56,UZ,0.0
D,57,UX,0.0
D,57,UY,0.0
D,57,UZ,0.0
D,58,UX,0.0
D,58,UY,0.0
D,58,UZ,0.0
D,59,UX,0.0
D,59,UY,0.0
D,59,UZ,0.0
D,60,UX,0.0
D,60,UY,0.0
D,60,UZ,0.0
D,325,UX,0.0
D,325,UY,0.0
D,325,UZ,0.0
D,326,UX,0.0
D,326,UY,0.0
D,326,UZ,0.0
D,327,UX,0.0
D,327,UY,0.0
D,327,UZ,0.0
D,328,UX,0.0
D,328,UY,0.0
D,328,UZ,0.0
D,329,UX,0.0
D,329,UY,0.0
D,329,UZ,0.0
D,330,UX,0.0
D,330,UY,0.0
D,330,UZ,0.0
D,331,UX,0.0
D,331,UY,0.0
D,331,UZ,0.0
D,332,UX,0.0
D,332,UY,0.0
D,332,UZ,0.0
D,333,UX,0.0
D,333,UY,0.0
D,333,UZ,0.0
D,334,UX,0.0
D,334,UY,0.0
D,334,UZ,0.0
D,335,UX,0.0
D,335,UY,0.0
D,335,UZ,0.0
D,336,UX,0.0
D,336,UY,0.0
D,336,UZ,0.0
! ... 48 like lines cut
