/COM,CDB format Rev 5.5 created by Autodesk Algor FEA Translation Utility	Version 2017.00-WIN  10-Mar-2016
/PREP7
/NOPR
/TITLE,C:\Users\ivana\Documents\cube_v2.ds_data\1\ds
NUMOFF,NODE,  6618
NUMOFF,ELEM, 34025
NUMOFF,MAT ,     1
NUMOFF,TYPE,     1
MP,ALPX,1,1.1700000E-05
MP,ALPY,1,1.1700000E-05
MP,ALPZ,1,1.1700000E-05
MP,DENS,1,7.8548680E-09
MP,KXX,1,4.6759706E-02
MP,EX,1,1.9994796E+05
MP,EY,1,1.9994796E+05
MP,EZ,1,1.9994796E+05
MP,PRXY,1,2.9000000E-01
MP,PRYZ,1,2.9000000E-01
MP,PRXZ,1,2.9000000E-01
ET,1,SOLID72
N,R5.0,LOC,1,-0.5,-0.5,1
N,R5.0,LOC,2,0.5,-0.5,1
N,R5.0,LOC,3,0.5,0.5,1
N,R5.0,LOC,4,-0.5,0.5,1
N,R5.0,LOC,5,-0.05,-0.05,1
N,R5.0,LOC,6,-0.05,0.05,1
N,R5.0,LOC,7,0.05,0.05,1
N,R5.0,LOC,8,0.05,-0.05,1
N,R5.0,LOC,9,-0.5,0.5,0
N,R5.0,LOC,10,-0.5,-0.5,0
N,R5.0,LOC,11,0.5,0.5,0
N,R5.0,LOC,12,0.5,-0.5,0
N,R5.0,LOC,13,-0.05,-0.05,1.001
N,R5.0,LOC,14,-0.05,0.05,1.001
N,R5.0,LOC,15,0.05,0.05,1.001
N,R5.0,LOC,16,0.05,-0.05,1.001
N,R5.0,LOC,17,-0.441176,-0.5,1
N,R5.0,LOC,18,-0.382353,-0.5,1
N,R5.0,LOC,19,-0.323529,-0.5,1
N,R5.0,LOC,20,-0.264706,-0.5,1
! ... 6598 like lines cut
MAT, 1, TYPE, 1, REAL, 1
EN,R5.0,ATTR,4,1,1,1,1
EN,R5.0,NODE,4896,3427,4421,1880
EN,R5.0,ATTR,4,1,1,1,2
EN,R5.0,NODE,4896,4421,3481,1880
EN,R5.0,ATTR,4,1,1,1,3
EN,R5.0,NODE,3079,3427,3096,1880
EN,R5.0,ATTR,4,1,1,1,4
EN,R5.0,NODE,4421,1880,4381,3481
EN,R5.0,ATTR,4,1,1,1,5
EN,R5.0,NODE,4896,2648,4895,1880
EN,R5.0,ATTR,4,1,1,1,6
EN,R5.0,NODE,4896,4895,3427,1880
EN,R5.0,ATTR,4,1,1,1,7
EN,R5.0,NODE,4381,3481,1880,3190
EN,R5.0,ATTR,4,1,1,1,8
EN,R5.0,NODE,3190,2889,2359,1880
EN,R5.0,ATTR,4,1,1,1,9
EN,R5.0,NODE,2006,2011,2167,2106
EN,R5.0,ATTR,4,1,1,1,10
EN,R5.0,NODE,2056,2006,1968,1881
EN,R5.0,ATTR,4,1,1,1,11
EN,R5.0,NODE,2056,2236,1968,2006
EN,R5.0,ATTR,4,1,1,1,12
EN,R5.0,NODE,2056,2261,2006,1881
EN,R5.0,ATTR,4,1,1,1,13
EN,R5.0,NODE,2167,1881,2970,1968
EN,R5.0,ATTR,4,1,1,1,14
EN,R5.0,NODE,2824,2167,2106,1881
EN,R5.0,ATTR,4,1,1,1,15
EN,R5.0,NODE,2824,2106,2261,1881
EN,R5.0,ATTR,4,1,1,1,16
EN,R5.0,NODE,2106,2011,2167,2216
EN,R5.0,ATTR,4,1,1,1,17
EN,R5.0,NODE,3331,2261,2377,1881
EN,R5.0,ATTR,4,1,1,1,18
EN,R5.0,NODE,2059,1901,1882,1907
EN,R5.0,ATTR,4,1,1,1,19
EN,R5.0,NODE,2975,1907,2059,1882
EN,R5.0,ATTR,4,1,1,1,20
EN,R5.0,NODE,2059,1983,1882,1901
! ... 68010 like lines cut
SFE,15775,3,PRES,1,R5.0
          100000
SFE,18728,4,PRES,1,R5.0
          100000
SFE,18858,4,PRES,1,R5.0
          100000
SFE,21784,4,PRES,1,R5.0
          100000
SFE,25549,4,PRES,1,R5.0
          100000
SFE,26346,4,PRES,1,R5.0
          100000
SFE,29324,4,PRES,1,R5.0
          100000
SFE,29620,4,PRES,1,R5.0
          100000
D,9,UX,0.0
D,9,UY,0.0
D,9,UZ,0.0
D,10,UX,0.0
D,10,UY,0.0
D,10,UZ,0.0
D,11,UX,0.0
D,11,UY,0.0
D,11,UZ,0.0
D,12,UX,0.0
D,12,UY,0.0
D,12,UZ,0.0
D,101,UX,0.0
D,101,UY,0.0
D,101,UZ,0.0
D,102,UX,0.0
D,102,UY,0.0
D,102,UZ,0.0
D,103,UX,0.0
D,103,UY,0.0
D,103,UZ,0.0
D,104,UX,0.0
D,104,UY,0.0
D,104,UZ,0.0
D,105,UX,0.0
D,105,UY,0.0
D,105,UZ,0.0
D,106,UX,0.0
D,106,UY,0.0
D,106,UZ,0.0
D,107,UX,0.0
D,107,UY,0.0
D,107,UZ,0.0
D,108,UX,0.0
D,108,UY,0.0
D,108,UZ,0.0
D,109,UX,0.0
D,109,UY,0.0
D,109,UZ,0.0
D,110,UX,0.0
D,110,UY,0.0
D,110,UZ,0.0
D,111,UX,0.0
D,111,UY,0.0
D,111,UZ,0.0
D,112,UX,0.0
D,112,UY,0.0
D,112,UZ,0.0
D,113,UX,0.0
D,113,UY,0.0
D,113,UZ,0.0
D,114,UX,0.0
D,114,UY,0.0
D,114,UZ,0.0
D,115,UX,0.0
D,115,UY,0.0
D,115,UZ,0.0
D,116,UX,0.0
D,116,UY,0.0
D,116,UZ,0.0
! ... 912 like lines cut
