/COM,CDB format Rev 5.5 created by FEA Translation Utility	Version 2017.00-WIN  10-Mar-2016
/PREP7
/NOPR
/TITLE,D:\Software\cube.ds_data\1\ds
NUMOFF,NODE,  1147
NUMOFF,ELEM,  5281
NUMOFF,MAT ,     1
NUMOFF,TYPE,     1
MP,ALPX,1,1.1700000E-05
MP,ALPY,1,1.1700000E-05
MP,ALPZ,1,1.1700000E-05
MP,DENS,1,7.8548680E-09
MP,KXX,1,4.6759706E-02
MP,EX,1,1.9994796E+11
MP,EY,1,1.9994796E+11
MP,EZ,1,1.9994796E+11
MP,PRXY,1,2.9000000E-01
MP,PRYZ,1,2.9000000E-01
MP,PRXZ,1,2.9000000E-01
ET,1,SOLID72
N,R5.0,LOC,1,-0.5,0.5,0
N,R5.0,LOC,2,-0.5,-0.5,0
N,R5.0,LOC,3,-0.5,-0.5,1
N,R5.0,LOC,4,-0.5,0.5,1
N,R5.0,LOC,5,0.5,0.5,1
N,R5.0,LOC,6,0.5,0.5,0
N,R5.0,LOC,7,0.5,-0.5,1
N,R5.0,LOC,8,0.5,-0.5,0
N,R5.0,LOC,9,-0.5,0.388889,0
N,R5.0,LOC,10,-0.5,0.277778,0
N,R5.0,LOC,11,-0.5,0.166667,0
N,R5.0,LOC,12,-0.5,0.0555556,0
N,R5.0,LOC,13,-0.5,-0.0555556,0
N,R5.0,LOC,14,-0.5,-0.166667,0
N,R5.0,LOC,15,-0.5,-0.277778,0
N,R5.0,LOC,16,-0.5,-0.388889,0
N,R5.0,LOC,17,-0.5,-0.5,0.111111
N,R5.0,LOC,18,-0.5,-0.5,0.222222
N,R5.0,LOC,19,-0.5,-0.5,0.333333
N,R5.0,LOC,20,-0.5,-0.5,0.444444
! ... 1127 like lines cut
MAT, 1, TYPE, 1, REAL, 1
EN,R5.0,ATTR,4,1,1,1,1
EN,R5.0,NODE,571,553,569,518
EN,R5.0,ATTR,4,1,1,1,2
EN,R5.0,NODE,636,591,495,490
EN,R5.0,ATTR,4,1,1,1,3
EN,R5.0,NODE,636,711,495,591
EN,R5.0,ATTR,4,1,1,1,4
EN,R5.0,NODE,586,498,522,490
EN,R5.0,ATTR,4,1,1,1,5
EN,R5.0,NODE,508,490,522,528
EN,R5.0,ATTR,4,1,1,1,6
EN,R5.0,NODE,528,591,583,490
EN,R5.0,ATTR,4,1,1,1,7
EN,R5.0,NODE,528,522,521,490
EN,R5.0,ATTR,4,1,1,1,8
EN,R5.0,NODE,540,876,491,877
EN,R5.0,ATTR,4,1,1,1,9
EN,R5.0,NODE,589,877,491,537
EN,R5.0,ATTR,4,1,1,1,10
EN,R5.0,NODE,691,579,491,507
EN,R5.0,ATTR,4,1,1,1,11
EN,R5.0,NODE,540,512,589,491
EN,R5.0,ATTR,4,1,1,1,12
EN,R5.0,NODE,876,673,529,491
EN,R5.0,ATTR,4,1,1,1,13
EN,R5.0,NODE,608,544,594,518
EN,R5.0,ATTR,4,1,1,1,14
EN,R5.0,NODE,696,489,553,518
EN,R5.0,ATTR,4,1,1,1,15
EN,R5.0,NODE,647,544,608,518
EN,R5.0,ATTR,4,1,1,1,16
EN,R5.0,NODE,715,578,696,518
EN,R5.0,ATTR,4,1,1,1,17
EN,R5.0,NODE,569,530,502,518
EN,R5.0,ATTR,4,1,1,1,18
EN,R5.0,NODE,721,652,529,492
EN,R5.0,ATTR,4,1,1,1,19
EN,R5.0,NODE,721,1018,1019,631
EN,R5.0,ATTR,4,1,1,1,20
EN,R5.0,NODE,732,899,1017,492
! ... 10522 like lines cut
SFE,684,4,PRES,1,R5.0
            1000
SFE,882,4,PRES,1,R5.0
            1000
SFE,886,4,PRES,1,R5.0
            1000
SFE,899,4,PRES,1,R5.0
            1000
SFE,1182,4,PRES,1,R5.0
            1000
SFE,1187,4,PRES,1,R5.0
            1000
SFE,1254,2,PRES,1,R5.0
            1000
SFE,1317,4,PRES,1,R5.0
            1000
SFE,1333,4,PRES,1,R5.0
            1000
SFE,1357,4,PRES,1,R5.0
            1000
SFE,1515,3,PRES,1,R5.0
            1000
SFE,1863,4,PRES,1,R5.0
            1000
SFE,1867,4,PRES,1,R5.0
            1000
SFE,1939,4,PRES,1,R5.0
            1000
SFE,1941,4,PRES,1,R5.0
            1000
SFE,1973,2,PRES,1,R5.0
            1000
SFE,2158,2,PRES,1,R5.0
            1000
SFE,2208,4,PRES,1,R5.0
            1000
SFE,2257,4,PRES,1,R5.0
            1000
SFE,2258,4,PRES,1,R5.0
            1000
! ... 284 like lines cut
D,1,UX,0.0
D,1,UY,0.0
D,1,UZ,0.0
D,2,UX,0.0
D,2,UY,0.0
D,2,UZ,0.0
D,6,UX,0.0
D,6,UY,0.0
D,6,UZ,0.0
D,8,UX,0.0
D,8,UY,0.0
D,8,UZ,0.0
D,9,UX,0.0
D,9,UY,0.0
D,9,UZ,0.0
D,10,UX,0.0
D,10,UY,0.0
D,10,UZ,0.0
D,11,UX,0.0
D,11,UY,0.0
D,11,UZ,0.0
D,12,UX,0.0
D,12,UY,0.0
D,12,UZ,0.0
D,13,UX,0.0
D,13,UY,0.0
D,13,UZ,0.0
D,14,UX,0.0
D,14,UY,0.0
D,14,UZ,0.0
D,15,UX,0.0
D,15,UY,0.0
D,15,UZ,0.0
D,16,UX,0.0
D,16,UY,0.0
D,16,UZ,0.0
D,57,UX,0.0
D,57,UY,0.0
D,57,UZ,0.0
D,58,UX,0.0
D,58,UY,0.0
D,58,UZ,0.0
D,59,UX,0.0
D,59,UY,0.0
D,59,UZ,0.0
D,60,UX,0.0
D,60,UY,0.0
D,60,UZ,0.0
D,61,UX,0.0
D,61,UY,0.0
D,61,UZ,0.0
D,62,UX,0.0
D,62,UY,0.0
D,62,UZ,0.0
D,63,UX,0.0
D,63,UY,0.0
D,63,UZ,0.0
D,64,UX,0.0
D,64,UY,0.0
D,64,UZ,0.0
! ... 240 like lines cut
