/COM,CDB format Rev 5.5 created by Autodesk Algor FEA Translation Utility	Version 2017.00-WIN  10-Mar-2016
/PREP7
/NOPR
/TITLE,C:\Users\ivana\Documents\cube_crack.ds_data\1\ds
NUMOFF,NODE,  4126
NUMOFF,ELEM, 19829
NUMOFF,MAT ,     1
NUMOFF,TYPE,     1
MP,ALPX,1,1.1700000E-05
MP,ALPY,1,1.1700000E-05
MP,ALPZ,1,1.1700000E-05
MP,DENS,1,7.8548680E-09
MP,KXX,1,4.6759706E-02
MP,EX,1,1.9994796E+05
MP,EY,1,1.9994796E+05
MP,EZ,1,1.9994796E+05
MP,PRXY,1,2.9000000E-01
MP,PRYZ,1,2.9000000E-01
MP,PRXZ,1,2.9000000E-01
ET,1,SOLID72
N,R5.0,LOC,1,-0.5,0.5,0.51
N,R5.0,LOC,2,0,0.5,0.5
N,R5.0,LOC,3,0,-0.5,0.5
N,R5.0,LOC,4,-0.5,-0.5,0.51
N,R5.0,LOC,5,-0.5,0.5,0.49
N,R5.0,LOC,6,-0.5,-0.5,0.49
N,R5.0,LOC,7,-0.5,0.5,0
N,R5.0,LOC,8,-0.5,-0.5,0
N,R5.0,LOC,9,-0.5,-0.5,1
N,R5.0,LOC,10,-0.5,0.5,1
N,R5.0,LOC,11,0.5,-0.5,0
N,R5.0,LOC,12,0.5,-0.5,1
N,R5.0,LOC,13,0.5,0.5,0
N,R5.0,LOC,14,0.5,0.5,1
N,R5.0,LOC,15,-0.4375,0.5,0.50875
N,R5.0,LOC,16,-0.375,0.5,0.5075
N,R5.0,LOC,17,-0.3125,0.5,0.50625
N,R5.0,LOC,18,-0.25,0.5,0.505
N,R5.0,LOC,19,-0.1875,0.5,0.50375
N,R5.0,LOC,20,-0.125,0.5,0.5025
! ... 4106 like lines cut
MAT, 1, TYPE, 1, REAL, 1
EN,R5.0,ATTR,4,1,1,1,1
EN,R5.0,NODE,2578,1931,1587,1898
EN,R5.0,ATTR,4,1,1,1,2
EN,R5.0,NODE,2578,2549,1789,1587
EN,R5.0,ATTR,4,1,1,1,3
EN,R5.0,NODE,2578,2115,2549,1587
EN,R5.0,ATTR,4,1,1,1,4
EN,R5.0,NODE,1789,1637,1635,1587
EN,R5.0,ATTR,4,1,1,1,5
EN,R5.0,NODE,3683,1796,2549,1587
EN,R5.0,ATTR,4,1,1,1,6
EN,R5.0,NODE,3751,1588,3110,3413
EN,R5.0,ATTR,4,1,1,1,7
EN,R5.0,NODE,3208,1950,1588,3323
EN,R5.0,ATTR,4,1,1,1,8
EN,R5.0,NODE,2791,1619,1950,1588
EN,R5.0,ATTR,4,1,1,1,9
EN,R5.0,NODE,2791,1748,1619,1588
EN,R5.0,ATTR,4,1,1,1,10
EN,R5.0,NODE,3323,2791,1950,1588
EN,R5.0,ATTR,4,1,1,1,11
EN,R5.0,NODE,2791,2159,1748,1588
EN,R5.0,ATTR,4,1,1,1,12
EN,R5.0,NODE,2252,1991,2044,1589
EN,R5.0,ATTR,4,1,1,1,13
EN,R5.0,NODE,2252,2182,1589,2035
EN,R5.0,ATTR,4,1,1,1,14
EN,R5.0,NODE,2252,2035,1589,1701
EN,R5.0,ATTR,4,1,1,1,15
EN,R5.0,NODE,3283,2044,3678,1991
EN,R5.0,ATTR,4,1,1,1,16
EN,R5.0,NODE,2427,2988,3283,2635
EN,R5.0,ATTR,4,1,1,1,17
EN,R5.0,NODE,2679,2252,2044,1701
EN,R5.0,ATTR,4,1,1,1,18
EN,R5.0,NODE,2252,2182,2427,1589
EN,R5.0,ATTR,4,1,1,1,19
EN,R5.0,NODE,2182,2643,2635,2984
EN,R5.0,ATTR,4,1,1,1,20
EN,R5.0,NODE,1850,1835,3282,3283
! ... 39618 like lines cut
SFE,784,1,PRES,1,R5.0
           -1000
SFE,786,3,PRES,1,R5.0
           -1000
SFE,1430,3,PRES,1,R5.0
           -1000
SFE,1539,1,PRES,1,R5.0
           -1000
SFE,1554,4,PRES,1,R5.0
           -1000
SFE,1893,4,PRES,1,R5.0
           -1000
SFE,2235,3,PRES,1,R5.0
           -1000
SFE,2309,1,PRES,1,R5.0
           -1000
SFE,2884,4,PRES,1,R5.0
           -1000
SFE,3569,4,PRES,1,R5.0
           -1000
SFE,3587,4,PRES,1,R5.0
           -1000
SFE,3952,4,PRES,1,R5.0
           -1000
SFE,4519,4,PRES,1,R5.0
           -1000
SFE,4918,4,PRES,1,R5.0
           -1000
SFE,4933,3,PRES,1,R5.0
           -1000
SFE,4938,2,PRES,1,R5.0
           -1000
SFE,4986,4,PRES,1,R5.0
           -1000
SFE,5200,2,PRES,1,R5.0
           -1000
SFE,5202,4,PRES,1,R5.0
           -1000
SFE,5298,4,PRES,1,R5.0
           -1000
! ... 860 like lines cut
D,7,UX,0.0
D,7,UY,0.0
D,7,UZ,0.0
D,8,UX,0.0
D,8,UY,0.0
D,8,UZ,0.0
D,11,UX,0.0
D,11,UY,0.0
D,11,UZ,0.0
D,13,UX,0.0
D,13,UY,0.0
D,13,UZ,0.0
D,91,UX,0.0
D,91,UY,0.0
D,91,UZ,0.0
D,92,UX,0.0
D,92,UY,0.0
D,92,UZ,0.0
D,93,UX,0.0
D,93,UY,0.0
D,93,UZ,0.0
D,94,UX,0.0
D,94,UY,0.0
D,94,UZ,0.0
D,95,UX,0.0
D,95,UY,0.0
D,95,UZ,0.0
D,96,UX,0.0
D,96,UY,0.0
D,96,UZ,0.0
D,97,UX,0.0
D,97,UY,0.0
D,97,UZ,0.0
D,98,UX,0.0
D,98,UY,0.0
D,98,UZ,0.0
D,99,UX,0.0
D,99,UY,0.0
D,99,UZ,0.0
D,100,UX,0.0
D,100,UY,0.0
D,100,UZ,0.0
D,101,UX,0.0
D,101,UY,0.0
D,101,UZ,0.0
D,102,UX,0.0
D,102,UY,0.0
D,102,UZ,0.0
D,103,UX,0.0
D,103,UY,0.0
D,103,UZ,0.0
D,104,UX,0.0
D,104,UY,0.0
D,104,UZ,0.0
D,137,UX,0.0
D,137,UY,0.0
D,137,UZ,0.0
D,138,UX,0.0
D,138,UY,0.0
D,138,UZ,0.0
! ... 708 like lines cut
