/COM,CDB format Rev 5.5 created by Autodesk Algor FEA Translation Utility	Version 2017.00-WIN  10-Mar-2016
/PREP7
/NOPR
/TITLE,C:\Users\ivana\Documents\cube_v3.ds_data\1\ds
NUMOFF,NODE,  4812
NUMOFF,ELEM, 24279
NUMOFF,MAT ,     1
NUMOFF,TYPE,     1
MP,ALPX,1,1.1700000E-05
MP,ALPY,1,1.1700000E-05
MP,ALPZ,1,1.1700000E-05
MP,DENS,1,7.8548680E-09
MP,KXX,1,4.6759706E-02
MP,EX,1,1.9994796E+05
MP,EY,1,1.9994796E+05
MP,EZ,1,1.9994796E+05
MP,PRXY,1,2.9000000E-01
MP,PRYZ,1,2.9000000E-01
MP,PRXZ,1,2.9000000E-01
ET,1,SOLID72
N,R5.0,LOC,1,0.5,-0.5,-1
N,R5.0,LOC,2,-0.5,-0.5,-1
N,R5.0,LOC,3,-0.5,0.5,-1
N,R5.0,LOC,4,0.5,0.5,-1
N,R5.0,LOC,5,-0.025,-0.025,-1
N,R5.0,LOC,6,0.025,-0.025,-1
N,R5.0,LOC,7,0.025,0.025,-1
N,R5.0,LOC,8,-0.025,0.025,-1
N,R5.0,LOC,9,-0.025,-0.025,4.44089e-16
N,R5.0,LOC,10,0.025,-0.025,4.44089e-16
N,R5.0,LOC,11,0.025,-0.025,0.001
N,R5.0,LOC,12,-0.025,-0.025,0.001
N,R5.0,LOC,13,-0.025,0.025,0.001
N,R5.0,LOC,14,-0.025,0.025,4.44089e-16
N,R5.0,LOC,15,0.025,0.025,0.001
N,R5.0,LOC,16,0.025,0.025,4.44089e-16
N,R5.0,LOC,17,-0.5,-0.5,4.44089e-16
N,R5.0,LOC,18,-0.5,0.5,4.44089e-16
N,R5.0,LOC,19,0.5,0.5,4.44089e-16
N,R5.0,LOC,20,0.5,-0.5,4.44089e-16
! ... 4792 like lines cut
MAT, 1, TYPE, 1, REAL, 1
EN,R5.0,ATTR,4,1,1,1,1
EN,R5.0,NODE,1635,2866,1884,1712
EN,R5.0,ATTR,4,1,1,1,2
EN,R5.0,NODE,1712,2998,1560,2866
EN,R5.0,ATTR,4,1,1,1,3
EN,R5.0,NODE,2090,1712,2330,3439
EN,R5.0,ATTR,4,1,1,1,4
EN,R5.0,NODE,2126,2090,3440,1599
EN,R5.0,ATTR,4,1,1,1,5
EN,R5.0,NODE,1635,2866,1712,1560
EN,R5.0,ATTR,4,1,1,1,6
EN,R5.0,NODE,1954,3611,3439,1712
EN,R5.0,ATTR,4,1,1,1,7
EN,R5.0,NODE,1954,3611,1712,1884
EN,R5.0,ATTR,4,1,1,1,8
EN,R5.0,NODE,1954,3439,2330,1712
EN,R5.0,ATTR,4,1,1,1,9
EN,R5.0,NODE,3411,1718,2014,1510
EN,R5.0,ATTR,4,1,1,1,10
EN,R5.0,NODE,3411,2475,1718,1510
EN,R5.0,ATTR,4,1,1,1,11
EN,R5.0,NODE,3411,2014,1755,1510
EN,R5.0,ATTR,4,1,1,1,12
EN,R5.0,NODE,2475,1755,1844,1510
EN,R5.0,ATTR,4,1,1,1,13
EN,R5.0,NODE,2014,1718,1512,1510
EN,R5.0,ATTR,4,1,1,1,14
EN,R5.0,NODE,2240,1973,2307,1511
EN,R5.0,ATTR,4,1,1,1,15
EN,R5.0,NODE,3003,3672,2240,1511
EN,R5.0,ATTR,4,1,1,1,16
EN,R5.0,NODE,1646,2012,2240,1973
EN,R5.0,ATTR,4,1,1,1,17
EN,R5.0,NODE,1646,1973,2240,1511
EN,R5.0,ATTR,4,1,1,1,18
EN,R5.0,NODE,2637,1569,1720,1512
EN,R5.0,ATTR,4,1,1,1,19
EN,R5.0,NODE,1693,1569,1547,1512
EN,R5.0,ATTR,4,1,1,1,20
EN,R5.0,NODE,1693,1547,1555,1512
! ... 48518 like lines cut
SFE,11010,1,PRES,1,R5.0
            1000
SFE,20557,1,PRES,1,R5.0
            1000
D,21,UX,0.0
D,21,UY,0.0
D,21,UZ,0.0
D,22,UX,0.0
D,22,UY,0.0
D,22,UZ,0.0
D,23,UX,0.0
D,23,UY,0.0
D,23,UZ,0.0
D,24,UX,0.0
D,24,UY,0.0
D,24,UZ,0.0
