/COM,CDB format Rev 5.5 created by Autodesk Algor FEA Translation Utility	Version 2017.00-WIN  10-Mar-2016
/PREP7
/NOPR
/TITLE,D:\Documents\new\cylinder3d.ds_data\1\ds
NUMOFF,NODE,  3780
NUMOFF,ELEM, 18983
NUMOFF,MAT ,     1
NUMOFF,TYPE,     1
MP,ALPX,1,1.4400000E-04
MP,ALPY,1,1.4400000E-04
MP,ALPZ,1,1.4400000E-04
MP,DENS,1,1.1434978E+03
MP,KXX,1,2.4997226E-01
MP,C,1,1.6258032E+03
MP,EX,1,2.7579029E+09
MP,EY,1,2.7579029E+09
MP,EZ,1,2.7579029E+09
MP,PRXY,1,3.5000000E-01
MP,PRYZ,1,3.5000000E-01
MP,PRXZ,1,3.5000000E-01
ET,1,SOLID72
N,R5.0,LOC,1,-0.5,0,0
N,R5.0,LOC,2,-0.5,0,1
N,R5.0,LOC,3,0.5,6.12323e-17,1
N,R5.0,LOC,4,0.5,6.12323e-17,0
N,R5.0,LOC,5,-0.5,0,0.0666667
N,R5.0,LOC,6,-0.5,0,0.133333
N,R5.0,LOC,7,-0.5,0,0.2
N,R5.0,LOC,8,-0.5,0,0.266667
N,R5.0,LOC,9,-0.5,0,0.333333
N,R5.0,LOC,10,-0.5,0,0.4
N,R5.0,LOC,11,-0.5,0,0.466667
N,R5.0,LOC,12,-0.5,0,0.533333
N,R5.0,LOC,13,-0.5,0,0.6
N,R5.0,LOC,14,-0.5,0,0.666667
N,R5.0,LOC,15,-0.5,0,0.733333
N,R5.0,LOC,16,-0.5,0,0.8
N,R5.0,LOC,17,-0.5,0,0.866667
N,R5.0,LOC,18,-0.5,0,0.933333
N,R5.0,LOC,19,-0.495722,0.0652631,1
N,R5.0,LOC,20,-0.482963,0.12941,1
! ... 3760 like lines cut
MAT, 1, TYPE, 1, REAL, 1
EN,R5.0,ATTR,4,1,1,1,1
EN,R5.0,NODE,1812,1353,1566,1205
EN,R5.0,ATTR,4,1,1,1,2
EN,R5.0,NODE,2341,2214,1812,1205
EN,R5.0,ATTR,4,1,1,1,3
EN,R5.0,NODE,1866,1426,1662,1205
EN,R5.0,ATTR,4,1,1,1,4
EN,R5.0,NODE,2406,1662,1205,1866
EN,R5.0,ATTR,4,1,1,1,5
EN,R5.0,NODE,1616,1232,1426,1205
EN,R5.0,ATTR,4,1,1,1,6
EN,R5.0,NODE,1662,1426,1566,1205
EN,R5.0,ATTR,4,1,1,1,7
EN,R5.0,NODE,2278,1232,1616,1205
EN,R5.0,ATTR,4,1,1,1,8
EN,R5.0,NODE,2214,1353,1812,1205
EN,R5.0,ATTR,4,1,1,1,9
EN,R5.0,NODE,2406,2214,1205,1662
EN,R5.0,ATTR,4,1,1,1,10
EN,R5.0,NODE,3157,1919,2678,1206
EN,R5.0,ATTR,4,1,1,1,11
EN,R5.0,NODE,3054,1919,2377,1206
EN,R5.0,ATTR,4,1,1,1,12
EN,R5.0,NODE,3054,2377,1390,1206
EN,R5.0,ATTR,4,1,1,1,13
EN,R5.0,NODE,1206,2678,3281,1919
EN,R5.0,ATTR,4,1,1,1,14
EN,R5.0,NODE,3054,3296,2377,1919
EN,R5.0,ATTR,4,1,1,1,15
EN,R5.0,NODE,1991,1377,1240,1207
EN,R5.0,ATTR,4,1,1,1,16
EN,R5.0,NODE,3515,1992,3424,1207
EN,R5.0,ATTR,4,1,1,1,17
EN,R5.0,NODE,3515,3424,3403,1207
EN,R5.0,ATTR,4,1,1,1,18
EN,R5.0,NODE,3425,1207,2955,3424
EN,R5.0,ATTR,4,1,1,1,19
EN,R5.0,NODE,3425,1991,1240,1207
EN,R5.0,ATTR,4,1,1,1,20
EN,R5.0,NODE,3425,1240,1384,1207
! ... 37926 like lines cut
SFE,210,3,PRES,1,R5.0
            1000
SFE,2733,4,PRES,1,R5.0
            1000
SFE,2734,4,PRES,1,R5.0
            1000
SFE,3556,4,PRES,1,R5.0
            1000
SFE,3558,4,PRES,1,R5.0
            1000
SFE,4158,2,PRES,1,R5.0
            1000
SFE,4159,4,PRES,1,R5.0
            1000
SFE,4587,4,PRES,1,R5.0
            1000
SFE,4681,4,PRES,1,R5.0
            1000
SFE,5239,4,PRES,1,R5.0
            1000
SFE,5257,4,PRES,1,R5.0
            1000
SFE,5404,4,PRES,1,R5.0
            1000
SFE,5455,4,PRES,1,R5.0
            1000
SFE,5583,4,PRES,1,R5.0
            1000
SFE,5716,3,PRES,1,R5.0
            1000
SFE,5722,4,PRES,1,R5.0
            1000
SFE,5773,4,PRES,1,R5.0
            1000
SFE,5831,3,PRES,1,R5.0
            1000
SFE,5833,4,PRES,1,R5.0
            1000
SFE,5842,4,PRES,1,R5.0
            1000
! ... 928 like lines cut
D,1,UX,0.0
D,1,UY,0.0
D,1,UZ,0.0
D,4,UX,0.0
D,4,UY,0.0
D,4,UZ,0.0
D,56,UX,0.0
D,56,UY,0.0
D,56,UZ,0.0
D,57,UX,0.0
D,57,UY,0.0
D,57,UZ,0.0
D,58,UX,0.0
D,58,UY,0.0
D,58,UZ,0.0
D,59,UX,0.0
D,59,UY,0.0
D,59,UZ,0.0
D,60,UX,0.0
D,60,UY,0.0
D,60,UZ,0.0
D,61,UX,0.0
D,61,UY,0.0
D,61,UZ,0.0
D,62,UX,0.0
D,62,UY,0.0
D,62,UZ,0.0
D,63,UX,0.0
D,63,UY,0.0
D,63,UZ,0.0
D,64,UX,0.0
D,64,UY,0.0
D,64,UZ,0.0
D,65,UX,0.0
D,65,UY,0.0
D,65,UZ,0.0
D,66,UX,0.0
D,66,UY,0.0
D,66,UZ,0.0
D,67,UX,0.0
D,67,UY,0.0
D,67,UZ,0.0
D,68,UX,0.0
D,68,UY,0.0
D,68,UZ,0.0
D,69,UX,0.0
D,69,UY,0.0
D,69,UZ,0.0
D,70,UX,0.0
D,70,UY,0.0
D,70,UZ,0.0
D,71,UX,0.0
D,71,UY,0.0
D,71,UZ,0.0
D,72,UX,0.0
D,72,UY,0.0
D,72,UZ,0.0
D,73,UX,0.0
D,73,UY,0.0
D,73,UZ,0.0
! ... 735 like lines cut
