/COM,CDB format Rev 5.5 created by Autodesk Algor FEA Translation Utility	Version 2017.00-WIN  10-Mar-2016
/PREP7
/NOPR
/TITLE,C:\Users\ivana\Documents\cylinder_v3.ds_data\1\ds
NUMOFF,NODE,  7080
NUMOFF,ELEM, 35780
NUMOFF,MAT ,     1
NUMOFF,TYPE,     1
MP,ALPX,1,1.1700000E-05
MP,ALPY,1,1.1700000E-05
MP,ALPZ,1,1.1700000E-05
MP,DENS,1,7.8548680E-09
MP,KXX,1,4.6759706E-02
MP,EX,1,1.9994796E+05
MP,EY,1,1.9994796E+05
MP,EZ,1,1.9994796E+05
MP,PRXY,1,2.9000000E-01
MP,PRYZ,1,2.9000000E-01
MP,PRXZ,1,2.9000000E-01
ET,1,SOLID72
N,R5.0,LOC,1,100,-25,-3.06162e-15
N,R5.0,LOC,2,100,25,0
N,R5.0,LOC,3,0,-25,-3.06162e-15
N,R5.0,LOC,4,0,25,0
N,R5.0,LOC,5,45.9808,-25,-3.06162e-15
N,R5.0,LOC,6,45.9808,25,0
N,R5.0,LOC,7,50,-10,-1.22465e-15
N,R5.0,LOC,8,50,10,0
N,R5.0,LOC,9,54.0192,-25,-3.06162e-15
N,R5.0,LOC,10,54.0192,25,0
N,R5.0,LOC,11,100,-24.7861,-3.26315
N,R5.0,LOC,12,100,-24.1481,-6.47048
N,R5.0,LOC,13,100,-23.097,-9.56709
N,R5.0,LOC,14,100,-21.6506,-12.5
N,R5.0,LOC,15,100,-19.8338,-15.219
N,R5.0,LOC,16,100,-17.6777,-17.6777
N,R5.0,LOC,17,100,-15.219,-19.8338
N,R5.0,LOC,18,100,-12.5,-21.6506
N,R5.0,LOC,19,100,-9.56709,-23.097
N,R5.0,LOC,20,100,-6.47048,-24.1481
! ... 7060 like lines cut
MAT, 1, TYPE, 1, REAL, 1
EN,R5.0,ATTR,4,1,1,1,1
EN,R5.0,NODE,2513,2293,2452,2197
EN,R5.0,ATTR,4,1,1,1,2
EN,R5.0,NODE,4916,4915,2513,2197
EN,R5.0,ATTR,4,1,1,1,3
EN,R5.0,NODE,2980,2376,2374,2197
EN,R5.0,ATTR,4,1,1,1,4
EN,R5.0,NODE,3619,2256,2422,2198
EN,R5.0,ATTR,4,1,1,1,5
EN,R5.0,NODE,3388,2690,4246,2198
EN,R5.0,ATTR,4,1,1,1,6
EN,R5.0,NODE,4443,2690,3095,2198
EN,R5.0,ATTR,4,1,1,1,7
EN,R5.0,NODE,4443,4246,2690,2198
EN,R5.0,ATTR,4,1,1,1,8
EN,R5.0,NODE,4443,3095,3326,2198
EN,R5.0,ATTR,4,1,1,1,9
EN,R5.0,NODE,3821,2967,2377,2199
EN,R5.0,ATTR,4,1,1,1,10
EN,R5.0,NODE,2377,2967,3254,2199
EN,R5.0,ATTR,4,1,1,1,11
EN,R5.0,NODE,2494,4844,2967,2304
EN,R5.0,ATTR,4,1,1,1,12
EN,R5.0,NODE,3254,3104,2775,2199
EN,R5.0,ATTR,4,1,1,1,13
EN,R5.0,NODE,2604,2377,3254,2775
EN,R5.0,ATTR,4,1,1,1,14
EN,R5.0,NODE,2632,2385,2431,2200
EN,R5.0,ATTR,4,1,1,1,15
EN,R5.0,NODE,2293,2215,2224,2200
EN,R5.0,ATTR,4,1,1,1,16
EN,R5.0,NODE,2632,2431,2224,2200
EN,R5.0,ATTR,4,1,1,1,17
EN,R5.0,NODE,2632,2215,2351,2200
EN,R5.0,ATTR,4,1,1,1,18
EN,R5.0,NODE,4248,2438,2219,3285
EN,R5.0,ATTR,4,1,1,1,19
EN,R5.0,NODE,3327,2201,2396,2223
EN,R5.0,ATTR,4,1,1,1,20
EN,R5.0,NODE,3327,2223,2373,2201
! ... 71520 like lines cut
SFE,3229,4,PRES,1,R5.0
           -1000
SFE,3534,4,PRES,1,R5.0
           -1000
SFE,3704,4,PRES,1,R5.0
           -1000
SFE,4395,4,PRES,1,R5.0
           -1000
SFE,5503,1,PRES,1,R5.0
           -1000
SFE,5544,4,PRES,1,R5.0
           -1000
SFE,5546,4,PRES,1,R5.0
           -1000
SFE,6692,4,PRES,1,R5.0
           -1000
SFE,6879,1,PRES,1,R5.0
           -1000
SFE,7972,3,PRES,1,R5.0
           -1000
SFE,7974,4,PRES,1,R5.0
           -1000
SFE,8033,4,PRES,1,R5.0
           -1000
SFE,8035,4,PRES,1,R5.0
           -1000
SFE,8841,4,PRES,1,R5.0
           -1000
SFE,8844,4,PRES,1,R5.0
           -1000
SFE,8846,4,PRES,1,R5.0
           -1000
SFE,9038,4,PRES,1,R5.0
           -1000
SFE,9492,4,PRES,1,R5.0
           -1000
SFE,9659,4,PRES,1,R5.0
           -1000
SFE,9661,4,PRES,1,R5.0
           -1000
! ... 928 like lines cut
D,3,UX,0.0
D,3,UY,0.0
D,3,UZ,0.0
D,4,UX,0.0
D,4,UY,0.0
D,4,UZ,0.0
D,57,UX,0.0
D,57,UY,0.0
D,57,UZ,0.0
D,58,UX,0.0
D,58,UY,0.0
D,58,UZ,0.0
D,59,UX,0.0
D,59,UY,0.0
D,59,UZ,0.0
D,60,UX,0.0
D,60,UY,0.0
D,60,UZ,0.0
D,61,UX,0.0
D,61,UY,0.0
D,61,UZ,0.0
D,62,UX,0.0
D,62,UY,0.0
D,62,UZ,0.0
D,63,UX,0.0
D,63,UY,0.0
D,63,UZ,0.0
D,64,UX,0.0
D,64,UY,0.0
D,64,UZ,0.0
D,65,UX,0.0
D,65,UY,0.0
D,65,UZ,0.0
D,66,UX,0.0
D,66,UY,0.0
D,66,UZ,0.0
D,67,UX,0.0
D,67,UY,0.0
D,67,UZ,0.0
D,68,UX,0.0
D,68,UY,0.0
D,68,UZ,0.0
D,69,UX,0.0
D,69,UY,0.0
D,69,UZ,0.0
D,70,UX,0.0
D,70,UY,0.0
D,70,UZ,0.0
D,71,UX,0.0
D,71,UY,0.0
D,71,UZ,0.0
D,72,UX,0.0
D,72,UY,0.0
D,72,UZ,0.0
D,73,UX,0.0
D,73,UY,0.0
D,73,UZ,0.0
D,74,UX,0.0
D,74,UY,0.0
D,74,UZ,0.0
! ... 741 like lines cut
