/COM,CDB format Rev 5.5 created by Autodesk Algor FEA Translation Utility	Version 2017.00-WIN  10-Mar-2016
/PREP7
/NOPR
/TITLE,D:\Documents\new\frame.ds_data\1\ds
NUMOFF,NODE,  7364
NUMOFF,ELEM, 21948
NUMOFF,MAT ,     1
NUMOFF,TYPE,     1
MP,ALPX,1,1.1700000E-05
MP,ALPY,1,1.1700000E-05
MP,ALPZ,1,1.1700000E-05
MP,DENS,1,7.8548680E+03
MP,KXX,1,4.6759706E+01
MP,EX,1,1.9994796E+11
MP,EY,1,1.9994796E+11
MP,EZ,1,1.9994796E+11
MP,PRXY,1,2.9000000E-01
MP,PRYZ,1,2.9000000E-01
MP,PRXZ,1,2.9000000E-01
ET,1,SOLID72
N,R5.0,LOC,1,1810.96,-1811,3622
N,R5.0,LOC,2,2189.04,-1811,3622
N,R5.0,LOC,3,2189.04,-1811,0
N,R5.0,LOC,4,1810.96,-1811,0
N,R5.0,LOC,5,2027.88,-1811,3979.55
N,R5.0,LOC,6,2189.04,-1811,3979.55
N,R5.0,LOC,7,2189.04,-1811,3642.45
N,R5.0,LOC,8,2027.88,-1811,3642.45
N,R5.0,LOC,9,2010.22,-1811,3660.1
N,R5.0,LOC,10,2010.22,-1811,3961.9
N,R5.0,LOC,11,1810.96,-1811,3979.55
N,R5.0,LOC,12,1972.12,-1811,3979.55
N,R5.0,LOC,13,1989.78,-1811,3961.9
N,R5.0,LOC,14,1989.78,-1811,3660.1
N,R5.0,LOC,15,1972.12,-1811,3642.45
N,R5.0,LOC,16,1810.96,-1811,3642.45
N,R5.0,LOC,17,1810.96,-1831.45,0
N,R5.0,LOC,18,1810.96,-1831.45,3622
N,R5.0,LOC,19,2189.04,-1831.45,3622
N,R5.0,LOC,20,2027.88,-1831.45,3622
! ... 7344 like lines cut
MAT, 1, TYPE, 1, REAL, 1
EN,R5.0,ATTR,4,1,1,1,1
EN,R5.0,NODE,3705,6783,3861,6976
EN,R5.0,ATTR,4,1,1,1,2
EN,R5.0,NODE,320,3705,3861,6976
EN,R5.0,ATTR,4,1,1,1,3
EN,R5.0,NODE,3387,6255,3388,6783
EN,R5.0,ATTR,4,1,1,1,4
EN,R5.0,NODE,3387,3861,6783,6976
EN,R5.0,ATTR,4,1,1,1,5
EN,R5.0,NODE,3705,283,3388,282
EN,R5.0,ATTR,4,1,1,1,6
EN,R5.0,NODE,3705,6981,6783,3388
EN,R5.0,ATTR,4,1,1,1,7
EN,R5.0,NODE,320,3861,3387,6976
EN,R5.0,ATTR,4,1,1,1,8
EN,R5.0,NODE,1799,5988,4927,2951
EN,R5.0,ATTR,4,1,1,1,9
EN,R5.0,NODE,138,2951,4927,242
EN,R5.0,ATTR,4,1,1,1,10
EN,R5.0,NODE,4666,229,4927,4608
EN,R5.0,ATTR,4,1,1,1,11
EN,R5.0,NODE,4927,5082,229,242
EN,R5.0,ATTR,4,1,1,1,12
EN,R5.0,NODE,4608,5082,229,4927
EN,R5.0,ATTR,4,1,1,1,13
EN,R5.0,NODE,138,4927,1041,6977
EN,R5.0,ATTR,4,1,1,1,14
EN,R5.0,NODE,142,2730,5923,229
EN,R5.0,ATTR,4,1,1,1,15
EN,R5.0,NODE,142,229,5923,6977
EN,R5.0,ATTR,4,1,1,1,16
EN,R5.0,NODE,138,6977,142,5923
EN,R5.0,ATTR,4,1,1,1,17
EN,R5.0,NODE,138,5923,242,6977
EN,R5.0,ATTR,4,1,1,1,18
EN,R5.0,NODE,138,242,4927,6977
EN,R5.0,ATTR,4,1,1,1,19
EN,R5.0,NODE,51,65,7307,7337
EN,R5.0,ATTR,4,1,1,1,20
EN,R5.0,NODE,47,709,4515,6681
! ... 43856 like lines cut
SFE,3066,4,PRES,1,R5.0
            1000
SFE,5888,4,PRES,1,R5.0
            1000
SFE,6841,2,PRES,1,R5.0
            1000
SFE,6843,4,PRES,1,R5.0
            1000
SFE,6848,4,PRES,1,R5.0
            1000
SFE,6864,1,PRES,1,R5.0
            1000
SFE,6873,1,PRES,1,R5.0
            1000
SFE,7904,2,PRES,1,R5.0
            1000
SFE,9962,1,PRES,1,R5.0
            1000
SFE,9974,3,PRES,1,R5.0
            1000
SFE,12113,1,PRES,1,R5.0
            1000
SFE,12114,2,PRES,1,R5.0
            1000
SFE,13597,2,PRES,1,R5.0
            1000
SFE,13645,4,PRES,1,R5.0
            1000
SFE,14080,3,PRES,1,R5.0
            1000
SFE,15425,4,PRES,1,R5.0
            1000
SFE,15426,4,PRES,1,R5.0
            1000
SFE,15499,4,PRES,1,R5.0
            1000
SFE,16517,2,PRES,1,R5.0
            1000
SFE,17136,4,PRES,1,R5.0
            1000
! ... 16 like lines cut
D,3,UX,0.0
D,3,UY,0.0
D,3,UZ,0.0
D,4,UX,0.0
D,4,UY,0.0
D,4,UZ,0.0
D,17,UX,0.0
D,17,UY,0.0
D,17,UZ,0.0
D,21,UX,0.0
D,21,UY,0.0
D,21,UZ,0.0
D,22,UX,0.0
D,22,UY,0.0
D,22,UZ,0.0
D,27,UX,0.0
D,27,UY,0.0
D,27,UZ,0.0
D,30,UX,0.0
D,30,UY,0.0
D,30,UZ,0.0
D,33,UX,0.0
D,33,UY,0.0
D,33,UZ,0.0
D,36,UX,0.0
D,36,UY,0.0
D,36,UZ,0.0
D,38,UX,0.0
D,38,UY,0.0
D,38,UZ,0.0
D,40,UX,0.0
D,40,UY,0.0
D,40,UZ,0.0
D,45,UX,0.0
D,45,UY,0.0
D,45,UZ,0.0
D,47,UX,0.0
D,47,UY,0.0
D,47,UZ,0.0
D,53,UX,0.0
D,53,UY,0.0
D,53,UZ,0.0
D,55,UX,0.0
D,55,UY,0.0
D,55,UZ,0.0
D,69,UX,0.0
D,69,UY,0.0
D,69,UZ,0.0
D,132,UX,0.0
D,132,UY,0.0
D,132,UZ,0.0
D,133,UX,0.0
D,133,UY,0.0
D,133,UZ,0.0
D,136,UX,0.0
D,136,UY,0.0
D,136,UZ,0.0
D,137,UX,0.0
D,137,UY,0.0
D,137,UZ,0.0
! ... 291 like lines cut
