/COM,CDB format Rev 5.5 created by Autodesk Algor FEA Translation Utility	Version 2017.00-WIN  10-Mar-2016
/PREP7
/NOPR
/TITLE,D:\Software\engrenagem3d.ds_data\1\ds
NUMOFF,NODE,  5177
NUMOFF,ELEM, 18268
NUMOFF,MAT ,     1
NUMOFF,TYPE,     1
MP,ALPX,1,1.1700000E-05
MP,ALPY,1,1.1700000E-05
MP,ALPZ,1,1.1700000E-05
MP,DENS,1,7.8548680E-09
MP,KXX,1,4.6759706E-02
MP,EX,1,1.9994796E+05
MP,EY,1,1.9994796E+05
MP,EZ,1,1.9994796E+05
MP,PRXY,1,2.9000000E-01
MP,PRYZ,1,2.9000000E-01
MP,PRXZ,1,2.9000000E-01
ET,1,SOLID72
N,R5.0,LOC,1,-15.7775,0,-23
N,R5.0,LOC,2,-14.7775,0,-24
N,R5.0,LOC,3,14.7775,1.80972e-15,-24
N,R5.0,LOC,4,15.7775,-1.93219e-15,-23
N,R5.0,LOC,5,-15.7775,-1.93219e-15,-14.4
N,R5.0,LOC,6,15.7775,0,-14.4
N,R5.0,LOC,7,1.8935,11.36,-24
N,R5.0,LOC,8,-1.8935,11.36,-24
N,R5.0,LOC,9,-1.8935,9.2752,-24
N,R5.0,LOC,10,1.8935,9.2752,-24
N,R5.0,LOC,11,-44.209,-4.88498e-15,-24
N,R5.0,LOC,12,-43.209,-4.88498e-15,-23
N,R5.0,LOC,13,43.209,4.06595e-16,-23
N,R5.0,LOC,14,44.209,-1.0299e-14,-24
N,R5.0,LOC,15,-43.209,4.22576e-15,-14.4
N,R5.0,LOC,16,43.209,-1.06581e-15,-14.4
N,R5.0,LOC,17,20.4904,42.6669,-24
N,R5.0,LOC,18,21.6839,43.0735,-24
N,R5.0,LOC,19,21.9719,43.6455,-24
N,R5.0,LOC,20,27.8104,48.6064,-24
! ... 5157 like lines cut
MAT, 1, TYPE, 1, REAL, 1
EN,R5.0,ATTR,4,1,1,1,1
EN,R5.0,NODE,3627,4370,4640,4069
EN,R5.0,ATTR,4,1,1,1,2
EN,R5.0,NODE,4738,4640,4342,4069
EN,R5.0,ATTR,4,1,1,1,3
EN,R5.0,NODE,3636,4370,5121,4069
EN,R5.0,ATTR,4,1,1,1,4
EN,R5.0,NODE,1315,5092,4466,4069
EN,R5.0,ATTR,4,1,1,1,5
EN,R5.0,NODE,4708,4466,4069,4370
EN,R5.0,ATTR,4,1,1,1,6
EN,R5.0,NODE,4466,1310,4069,3636
EN,R5.0,ATTR,4,1,1,1,7
EN,R5.0,NODE,4466,3636,4069,4370
EN,R5.0,ATTR,4,1,1,1,8
EN,R5.0,NODE,1310,1315,4466,4069
EN,R5.0,ATTR,4,1,1,1,9
EN,R5.0,NODE,4708,4342,4370,4069
EN,R5.0,ATTR,4,1,1,1,10
EN,R5.0,NODE,1257,4600,4434,1258
EN,R5.0,ATTR,4,1,1,1,11
EN,R5.0,NODE,1257,3605,3604,4070
EN,R5.0,ATTR,4,1,1,1,12
EN,R5.0,NODE,2147,172,4070,173
EN,R5.0,ATTR,4,1,1,1,13
EN,R5.0,NODE,1269,4646,3611,4862
EN,R5.0,ATTR,4,1,1,1,14
EN,R5.0,NODE,4070,3611,4600,1265
EN,R5.0,ATTR,4,1,1,1,15
EN,R5.0,NODE,4600,1257,4070,3605
EN,R5.0,ATTR,4,1,1,1,16
EN,R5.0,NODE,4600,3611,4070,4862
EN,R5.0,ATTR,4,1,1,1,17
EN,R5.0,NODE,1265,1262,4600,1261
EN,R5.0,ATTR,4,1,1,1,18
EN,R5.0,NODE,2029,4571,5037,4071
EN,R5.0,ATTR,4,1,1,1,19
EN,R5.0,NODE,1003,1004,2029,4071
EN,R5.0,ATTR,4,1,1,1,20
EN,R5.0,NODE,5037,4571,4520,4071
! ... 36496 like lines cut
SFE,2433,4,PRES,1,R5.0
      5.40594955
SFE,2437,4,PRES,1,R5.0
      5.40594955
SFE,4391,1,PRES,1,R5.0
      5.40594955
SFE,5034,3,PRES,1,R5.0
      5.40594955
SFE,5335,2,PRES,1,R5.0
      5.40594955
SFE,5950,1,PRES,1,R5.0
      5.40594955
SFE,9386,4,PRES,1,R5.0
      5.40594955
SFE,9700,3,PRES,1,R5.0
      5.40594955
SFE,9851,2,PRES,1,R5.0
      5.40594955
SFE,10038,4,PRES,1,R5.0
      5.40594955
SFE,10169,4,PRES,1,R5.0
      5.40594955
SFE,10221,2,PRES,1,R5.0
      5.40594955
SFE,12056,2,PRES,1,R5.0
      5.40594955
SFE,12220,3,PRES,1,R5.0
      5.40594955
SFE,12613,2,PRES,1,R5.0
      5.40594955
SFE,12622,1,PRES,1,R5.0
      5.40594955
SFE,12650,2,PRES,1,R5.0
      5.40594955
SFE,13885,4,PRES,1,R5.0
      5.40594955
SFE,15935,3,PRES,1,R5.0
      5.40594955
SFE,16336,4,PRES,1,R5.0
      5.40594955
SFE,16631,4,PRES,1,R5.0
      5.40594955
SFE,17944,2,PRES,1,R5.0
      5.40594955
D,9,UX,0.0
D,9,UY,0.0
D,9,UZ,0.0
D,10,UX,0.0
D,10,UY,0.0
D,10,UZ,0.0
D,233,UX,0.0
D,233,UY,0.0
D,233,UZ,0.0
D,234,UX,0.0
D,234,UY,0.0
D,234,UZ,0.0
D,499,UX,0.0
D,499,UY,0.0
D,499,UZ,0.0
D,500,UX,0.0
D,500,UY,0.0
D,500,UZ,0.0
D,501,UX,0.0
D,501,UY,0.0
D,501,UZ,0.0
D,502,UX,0.0
D,502,UY,0.0
D,502,UZ,0.0
D,503,UX,0.0
D,503,UY,0.0
D,503,UZ,0.0
D,504,UX,0.0
D,504,UY,0.0
D,504,UZ,0.0
D,505,UX,0.0
D,505,UY,0.0
D,505,UZ,0.0
D,506,UX,0.0
D,506,UY,0.0
D,506,UZ,0.0
D,507,UX,0.0
D,507,UY,0.0
D,507,UZ,0.0
D,508,UX,0.0
D,508,UY,0.0
D,508,UZ,0.0
D,763,UX,0.0
D,763,UY,0.0
D,763,UZ,0.0
D,764,UX,0.0
D,764,UY,0.0
D,764,UZ,0.0
D,765,UX,0.0
D,765,UY,0.0
D,765,UZ,0.0
D,766,UX,0.0
D,766,UY,0.0
D,766,UZ,0.0
D,767,UX,0.0
D,767,UY,0.0
D,767,UZ,0.0
D,768,UX,0.0
D,768,UY,0.0
D,768,UZ,0.0
! ... 156 like lines cut
