/COM,CDB format Rev 5.5 created by Autodesk Algor FEA Translation Utility	Version 2017.00-WIN  10-Mar-2016
/PREP7
/NOPR
/TITLE,C:\Users\ivana\Documents\plate.ds_data\1\ds
NUMOFF,NODE,  5667
NUMOFF,ELEM, 26395
NUMOFF,MAT ,     1
NUMOFF,TYPE,     1
MP,ALPX,1,1.1700000E-05
MP,ALPY,1,1.1700000E-05
MP,ALPZ,1,1.1700000E-05
MP,DENS,1,7.8548680E-09
MP,KXX,1,4.6759706E-02
MP,EX,1,1.9994796E+05
MP,EY,1,1.9994796E+05
MP,EZ,1,1.9994796E+05
MP,PRXY,1,2.9000000E-01
MP,PRYZ,1,2.9000000E-01
MP,PRXZ,1,2.9000000E-01
ET,1,SOLID72
N,R5.0,LOC,1,-25,0,0
N,R5.0,LOC,2,-25,0,25
N,R5.0,LOC,3,25,3.06162e-15,25
N,R5.0,LOC,4,25,3.06162e-15,0
N,R5.0,LOC,5,-150,50,0
N,R5.0,LOC,6,-150,-50,0
N,R5.0,LOC,7,-150,-50,25
N,R5.0,LOC,8,-150,50,25
N,R5.0,LOC,9,150,50,25
N,R5.0,LOC,10,150,50,0
N,R5.0,LOC,11,150,-50,25
N,R5.0,LOC,12,150,-50,0
N,R5.0,LOC,13,-25,0,6.25
N,R5.0,LOC,14,-25,0,12.5
N,R5.0,LOC,15,-25,0,18.75
N,R5.0,LOC,16,-24.3732,-5.56302,25
N,R5.0,LOC,17,-22.5242,-10.8471,25
N,R5.0,LOC,18,-19.5458,-15.5872,25
N,R5.0,LOC,19,-15.5872,-19.5458,25
N,R5.0,LOC,20,-10.8471,-22.5242,25
! ... 5647 like lines cut
MAT, 1, TYPE, 1, REAL, 1
EN,R5.0,ATTR,4,1,1,1,1
EN,R5.0,NODE,4141,3860,3151,2414
EN,R5.0,ATTR,4,1,1,1,2
EN,R5.0,NODE,4141,2839,3860,2414
EN,R5.0,ATTR,4,1,1,1,3
EN,R5.0,NODE,3860,3042,3151,2414
EN,R5.0,ATTR,4,1,1,1,4
EN,R5.0,NODE,4898,4141,3151,2414
EN,R5.0,ATTR,4,1,1,1,5
EN,R5.0,NODE,2927,2839,2613,2414
EN,R5.0,ATTR,4,1,1,1,6
EN,R5.0,NODE,3970,3077,2613,2414
EN,R5.0,ATTR,4,1,1,1,7
EN,R5.0,NODE,709,2823,3387,2415
EN,R5.0,ATTR,4,1,1,1,8
EN,R5.0,NODE,4245,3387,2823,2415
EN,R5.0,ATTR,4,1,1,1,9
EN,R5.0,NODE,990,3387,4245,2415
EN,R5.0,ATTR,4,1,1,1,10
EN,R5.0,NODE,4199,3466,3514,2416
EN,R5.0,ATTR,4,1,1,1,11
EN,R5.0,NODE,3565,4117,4199,3514
EN,R5.0,ATTR,4,1,1,1,12
EN,R5.0,NODE,3514,3466,2819,2416
EN,R5.0,ATTR,4,1,1,1,13
EN,R5.0,NODE,4117,5660,4199,2416
EN,R5.0,ATTR,4,1,1,1,14
EN,R5.0,NODE,5660,5274,2416,5275
EN,R5.0,ATTR,4,1,1,1,15
EN,R5.0,NODE,5661,3466,5660,5274
EN,R5.0,ATTR,4,1,1,1,16
EN,R5.0,NODE,4275,2467,3420,2417
EN,R5.0,ATTR,4,1,1,1,17
EN,R5.0,NODE,5104,5140,2511,2548
EN,R5.0,ATTR,4,1,1,1,18
EN,R5.0,NODE,2646,2527,2590,2548
EN,R5.0,ATTR,4,1,1,1,19
EN,R5.0,NODE,4275,2848,2455,2417
EN,R5.0,ATTR,4,1,1,1,20
EN,R5.0,NODE,3125,2455,2718,2417
! ... 52750 like lines cut
SFE,513,4,PRES,1,R5.0
           -1000
SFE,2248,4,PRES,1,R5.0
           -1000
SFE,2249,4,PRES,1,R5.0
           -1000
SFE,3525,1,PRES,1,R5.0
           -1000
SFE,4629,4,PRES,1,R5.0
           -1000
SFE,4631,4,PRES,1,R5.0
           -1000
SFE,5074,4,PRES,1,R5.0
           -1000
SFE,6076,4,PRES,1,R5.0
           -1000
SFE,6314,4,PRES,1,R5.0
           -1000
SFE,7708,3,PRES,1,R5.0
           -1000
SFE,8373,1,PRES,1,R5.0
           -1000
SFE,8376,4,PRES,1,R5.0
           -1000
SFE,9050,3,PRES,1,R5.0
           -1000
SFE,9054,3,PRES,1,R5.0
           -1000
SFE,9704,4,PRES,1,R5.0
           -1000
SFE,9951,4,PRES,1,R5.0
           -1000
SFE,9955,4,PRES,1,R5.0
           -1000
SFE,9958,4,PRES,1,R5.0
           -1000
SFE,9961,4,PRES,1,R5.0
           -1000
SFE,10028,4,PRES,1,R5.0
           -1000
! ... 248 like lines cut
D,5,UX,0.0
D,5,UY,0.0
D,5,UZ,0.0
D,6,UX,0.0
D,6,UY,0.0
D,6,UZ,0.0
D,7,UX,0.0
D,7,UY,0.0
D,7,UZ,0.0
D,8,UX,0.0
D,8,UY,0.0
D,8,UZ,0.0
D,71,UX,0.0
D,71,UY,0.0
D,71,UZ,0.0
D,72,UX,0.0
D,72,UY,0.0
D,72,UZ,0.0
D,73,UX,0.0
D,73,UY,0.0
D,73,UZ,0.0
D,74,UX,0.0
D,74,UY,0.0
D,74,UZ,0.0
D,75,UX,0.0
D,75,UY,0.0
D,75,UZ,0.0
D,76,UX,0.0
D,76,UY,0.0
D,76,UZ,0.0
D,77,UX,0.0
D,77,UY,0.0
D,77,UZ,0.0
D,78,UX,0.0
D,78,UY,0.0
D,78,UZ,0.0
D,79,UX,0.0
D,79,UY,0.0
D,79,UZ,0.0
D,80,UX,0.0
D,80,UY,0.0
D,80,UZ,0.0
D,81,UX,0.0
D,81,UY,0.0
D,81,UZ,0.0
D,82,UX,0.0
D,82,UY,0.0
D,82,UZ,0.0
D,83,UX,0.0
D,83,UY,0.0
D,83,UZ,0.0
D,84,UX,0.0
D,84,UY,0.0
D,84,UZ,0.0
D,85,UX,0.0
D,85,UY,0.0
D,85,UZ,0.0
D,86,UX,0.0
D,86,UY,0.0
D,86,UZ,0.0
! ... 225 like lines cut
