/COM,CDB format Rev 5.5 created by Autodesk Algor FEA Translation Utility	Version 2017.00-WIN  10-Mar-2016
/PREP7
/NOPR
/TITLE,C:\Users\ivana\Documents\rig_structure.ds_data\1\ds
NUMOFF,NODE,  4037
NUMOFF,ELEM, 18169
NUMOFF,MAT ,     1
NUMOFF,TYPE,     1
MP,ALPX,1,1.1700000E-05
MP,ALPY,1,1.1700000E-05
MP,ALPZ,1,1.1700000E-05
MP,DENS,1,7.8548680E-09
MP,KXX,1,4.6759706E-02
MP,EX,1,1.9994796E+05
MP,EY,1,1.9994796E+05
MP,EZ,1,1.9994796E+05
MP,PRXY,1,2.9000000E-01
MP,PRYZ,1,2.9000000E-01
MP,PRXZ,1,2.9000000E-01
ET,1,SOLID72
N,R5.0,LOC,1,4,4,10.5
N,R5.0,LOC,2,4,11,10.5
N,R5.0,LOC,3,4,11,6.5
N,R5.0,LOC,4,4,4,6.5
N,R5.0,LOC,5,4,4,2
N,R5.0,LOC,6,4,15,2
N,R5.0,LOC,7,4,15,15
N,R5.0,LOC,8,4,4,15
N,R5.0,LOC,9,32,7,2
N,R5.0,LOC,10,29,7,2
N,R5.0,LOC,11,29,7,15
N,R5.0,LOC,12,32,7,15
N,R5.0,LOC,13,32,0,15
N,R5.0,LOC,14,32,0,2
N,R5.0,LOC,15,0,0,15
N,R5.0,LOC,16,0,0,2
N,R5.0,LOC,17,0,15,15
N,R5.0,LOC,18,0,15,2
N,R5.0,LOC,19,19,4,6.5
N,R5.0,LOC,20,19,4,10.5
! ... 4017 like lines cut
MAT, 1, TYPE, 1, REAL, 1
EN,R5.0,ATTR,4,1,1,1,1
EN,R5.0,NODE,3210,2747,2533,1959
EN,R5.0,ATTR,4,1,1,1,2
EN,R5.0,NODE,2817,2666,2533,3210
EN,R5.0,ATTR,4,1,1,1,3
EN,R5.0,NODE,2747,3559,3464,3210
EN,R5.0,ATTR,4,1,1,1,4
EN,R5.0,NODE,2345,1959,2533,2747
EN,R5.0,ATTR,4,1,1,1,5
EN,R5.0,NODE,3464,2817,2176,1959
EN,R5.0,ATTR,4,1,1,1,6
EN,R5.0,NODE,3129,2087,1959,2817
EN,R5.0,ATTR,4,1,1,1,7
EN,R5.0,NODE,3892,1964,2126,1960
EN,R5.0,ATTR,4,1,1,1,8
EN,R5.0,NODE,3915,3619,3914,1960
EN,R5.0,ATTR,4,1,1,1,9
EN,R5.0,NODE,1962,1964,3916,3892
EN,R5.0,ATTR,4,1,1,1,10
EN,R5.0,NODE,3639,2063,2104,1961
EN,R5.0,ATTR,4,1,1,1,11
EN,R5.0,NODE,3639,2104,3146,1961
EN,R5.0,ATTR,4,1,1,1,12
EN,R5.0,NODE,2453,1961,2278,2332
EN,R5.0,ATTR,4,1,1,1,13
EN,R5.0,NODE,3640,2453,3403,1961
EN,R5.0,ATTR,4,1,1,1,14
EN,R5.0,NODE,2063,2056,1961,2129
EN,R5.0,ATTR,4,1,1,1,15
EN,R5.0,NODE,2332,2278,2056,1961
EN,R5.0,ATTR,4,1,1,1,16
EN,R5.0,NODE,2565,2369,2129,1961
EN,R5.0,ATTR,4,1,1,1,17
EN,R5.0,NODE,3303,2927,2883,1962
EN,R5.0,ATTR,4,1,1,1,18
EN,R5.0,NODE,3916,3303,2883,1962
EN,R5.0,ATTR,4,1,1,1,19
EN,R5.0,NODE,3141,2398,1964,1962
EN,R5.0,ATTR,4,1,1,1,20
EN,R5.0,NODE,2398,2013,1964,2149
! ... 36298 like lines cut
SFE,3865,4,PRES,1,R5.0
            1000
SFE,6347,4,PRES,1,R5.0
            1000
SFE,7328,4,PRES,1,R5.0
            1000
SFE,9141,4,PRES,1,R5.0
            1000
SFE,10162,4,PRES,1,R5.0
            1000
SFE,10190,4,PRES,1,R5.0
            1000
SFE,10200,3,PRES,1,R5.0
            1000
SFE,10256,3,PRES,1,R5.0
            1000
SFE,10261,4,PRES,1,R5.0
            1000
SFE,10375,4,PRES,1,R5.0
            1000
SFE,10376,4,PRES,1,R5.0
            1000
SFE,10409,4,PRES,1,R5.0
            1000
SFE,10411,4,PRES,1,R5.0
            1000
SFE,10612,4,PRES,1,R5.0
            1000
SFE,10632,4,PRES,1,R5.0
            1000
SFE,10707,4,PRES,1,R5.0
            1000
SFE,10882,4,PRES,1,R5.0
            1000
SFE,11027,4,PRES,1,R5.0
            1000
SFE,11043,4,PRES,1,R5.0
            1000
SFE,11152,4,PRES,1,R5.0
            1000
! ... 128 like lines cut
D,15,UX,0.0
D,15,UY,0.0
D,15,UZ,0.0
D,16,UX,0.0
D,16,UY,0.0
D,16,UZ,0.0
D,17,UX,0.0
D,17,UY,0.0
D,17,UZ,0.0
D,18,UX,0.0
D,18,UY,0.0
D,18,UZ,0.0
D,169,UX,0.0
D,169,UY,0.0
D,169,UZ,0.0
D,170,UX,0.0
D,170,UY,0.0
D,170,UZ,0.0
D,171,UX,0.0
D,171,UY,0.0
D,171,UZ,0.0
D,172,UX,0.0
D,172,UY,0.0
D,172,UZ,0.0
D,173,UX,0.0
D,173,UY,0.0
D,173,UZ,0.0
D,174,UX,0.0
D,174,UY,0.0
D,174,UZ,0.0
D,175,UX,0.0
D,175,UY,0.0
D,175,UZ,0.0
D,176,UX,0.0
D,176,UY,0.0
D,176,UZ,0.0
D,177,UX,0.0
D,177,UY,0.0
D,177,UZ,0.0
D,178,UX,0.0
D,178,UY,0.0
D,178,UZ,0.0
D,179,UX,0.0
D,179,UY,0.0
D,179,UZ,0.0
D,180,UX,0.0
D,180,UY,0.0
D,180,UZ,0.0
D,181,UX,0.0
D,181,UY,0.0
D,181,UZ,0.0
D,215,UX,0.0
D,215,UY,0.0
D,215,UZ,0.0
D,216,UX,0.0
D,216,UY,0.0
D,216,UZ,0.0
D,217,UX,0.0
D,217,UY,0.0
D,217,UZ,0.0
! ... 705 like lines cut
