/COM,CDB format Rev 5.5 created by Autodesk Algor FEA Translation Utility	Version 2017.00-WIN  10-Mar-2016
/PREP7
/NOPR
/TITLE,C:\Users\ivana\Documents\rod_v2.ds_data\1\ds
NUMOFF,NODE,  2946
NUMOFF,ELEM,  9422
NUMOFF,MAT ,     1
NUMOFF,TYPE,     1
MP,ALPX,1,1.8720000E-05
MP,ALPY,1,1.8720000E-05
MP,ALPZ,1,1.8720000E-05
MP,DENS,1,8.7418803E-09
MP,KXX,1,1.5933530E-01
MP,C,1,3.7161216E+05
MP,EX,1,1.1721087E+05
MP,EY,1,1.1721087E+05
MP,EZ,1,1.1721087E+05
MP,PRXY,1,3.3000000E-01
MP,PRYZ,1,3.3000000E-01
MP,PRXZ,1,3.3000000E-01
ET,1,SOLID72
N,R5.0,LOC,1,427.503,215.99,28.4328
N,R5.0,LOC,2,427.503,215.99,6.43281
N,R5.0,LOC,3,427.503,192.589,6.43281
N,R5.0,LOC,4,427.503,192.589,28.4328
N,R5.0,LOC,5,384.643,23.6697,6.43281
N,R5.0,LOC,6,384.643,63.4197,6.43281
N,R5.0,LOC,7,384.879,63.4197,6.43281
N,R5.0,LOC,8,406.27,82.7614,6.43281
N,R5.0,LOC,9,416.02,179.391,6.43281
N,R5.0,LOC,10,413.355,198.732,6.43281
N,R5.0,LOC,11,441.65,198.732,6.43281
N,R5.0,LOC,12,438.986,179.391,6.43281
N,R5.0,LOC,13,448.735,82.7614,6.43281
N,R5.0,LOC,14,470.127,63.4197,6.43281
N,R5.0,LOC,15,470.363,63.4197,6.43281
N,R5.0,LOC,16,470.363,23.6697,6.43281
N,R5.0,LOC,17,465.608,23.6697,6.43281
N,R5.0,LOC,18,456.73,19.4796,6.43281
N,R5.0,LOC,19,398.275,19.4796,6.43281
N,R5.0,LOC,20,389.397,23.6697,6.43281
! ... 2926 like lines cut
MAT, 1, TYPE, 1, REAL, 1
EN,R5.0,ATTR,4,1,1,1,1
EN,R5.0,NODE,2675,1071,2734,1381
EN,R5.0,ATTR,4,1,1,1,2
EN,R5.0,NODE,2809,712,2674,2734
EN,R5.0,ATTR,4,1,1,1,3
EN,R5.0,NODE,2809,2734,2674,2673
EN,R5.0,ATTR,4,1,1,1,4
EN,R5.0,NODE,2675,2734,2809,2673
EN,R5.0,ATTR,4,1,1,1,5
EN,R5.0,NODE,2675,1381,2734,2673
EN,R5.0,ATTR,4,1,1,1,6
EN,R5.0,NODE,1416,1388,1381,2684
EN,R5.0,ATTR,4,1,1,1,7
EN,R5.0,NODE,2665,220,2676,3
EN,R5.0,ATTR,4,1,1,1,8
EN,R5.0,NODE,2800,125,713,2809
EN,R5.0,ATTR,4,1,1,1,9
EN,R5.0,NODE,2809,125,713,712
EN,R5.0,ATTR,4,1,1,1,10
EN,R5.0,NODE,2684,1388,1381,668
EN,R5.0,ATTR,4,1,1,1,11
EN,R5.0,NODE,2684,668,1381,2674
EN,R5.0,ATTR,4,1,1,1,12
EN,R5.0,NODE,1381,112,668,1388
EN,R5.0,ATTR,4,1,1,1,13
EN,R5.0,NODE,2674,1790,107,668
EN,R5.0,ATTR,4,1,1,1,14
EN,R5.0,NODE,966,1071,2809,2675
EN,R5.0,ATTR,4,1,1,1,15
EN,R5.0,NODE,966,175,2809,1071
EN,R5.0,ATTR,4,1,1,1,16
EN,R5.0,NODE,1444,2675,186,1072
EN,R5.0,ATTR,4,1,1,1,17
EN,R5.0,NODE,1072,2675,1071,2074
EN,R5.0,ATTR,4,1,1,1,18
EN,R5.0,NODE,966,2074,1071,2675
EN,R5.0,ATTR,4,1,1,1,19
EN,R5.0,NODE,1072,2750,1444,2675
EN,R5.0,ATTR,4,1,1,1,20
EN,R5.0,NODE,1072,2074,2750,2675
! ... 18804 like lines cut
SFE,1007,4,PRES,1,R5.0
             100
SFE,1011,4,PRES,1,R5.0
             100
SFE,1383,4,PRES,1,R5.0
             100
SFE,1454,3,PRES,1,R5.0
             100
SFE,1540,1,PRES,1,R5.0
             100
SFE,1589,4,PRES,1,R5.0
             100
SFE,1760,3,PRES,1,R5.0
             100
SFE,1791,4,PRES,1,R5.0
             100
SFE,2848,3,PRES,1,R5.0
             100
SFE,2860,4,PRES,1,R5.0
             100
SFE,4171,1,PRES,1,R5.0
             100
SFE,4172,4,PRES,1,R5.0
             100
SFE,5146,3,PRES,1,R5.0
             100
SFE,5150,4,PRES,1,R5.0
             100
SFE,5400,4,PRES,1,R5.0
             100
SFE,5481,1,PRES,1,R5.0
             100
SFE,5639,4,PRES,1,R5.0
             100
SFE,5640,4,PRES,1,R5.0
             100
SFE,5908,4,PRES,1,R5.0
             100
SFE,5921,4,PRES,1,R5.0
             100
! ... 56 like lines cut
D,21,UX,0.0
D,21,UY,0.0
D,21,UZ,0.0
D,22,UX,0.0
D,22,UY,0.0
D,22,UZ,0.0
D,205,UX,0.0
D,205,UY,0.0
D,205,UZ,0.0
D,206,UX,0.0
D,206,UY,0.0
D,206,UZ,0.0
D,316,UX,0.0
D,316,UY,0.0
D,316,UZ,0.0
D,317,UX,0.0
D,317,UY,0.0
D,317,UZ,0.0
D,318,UX,0.0
D,318,UY,0.0
D,318,UZ,0.0
D,319,UX,0.0
D,319,UY,0.0
D,319,UZ,0.0
D,320,UX,0.0
D,320,UY,0.0
D,320,UZ,0.0
D,321,UX,0.0
D,321,UY,0.0
D,321,UZ,0.0
D,322,UX,0.0
D,322,UY,0.0
D,322,UZ,0.0
D,323,UX,0.0
D,323,UY,0.0
D,323,UZ,0.0
D,324,UX,0.0
D,324,UY,0.0
D,324,UZ,0.0
D,325,UX,0.0
D,325,UY,0.0
D,325,UZ,0.0
D,326,UX,0.0
D,326,UY,0.0
D,326,UZ,0.0
D,327,UX,0.0
D,327,UY,0.0
D,327,UZ,0.0
D,328,UX,0.0
D,328,UY,0.0
D,328,UZ,0.0
D,329,UX,0.0
D,329,UY,0.0
D,329,UZ,0.0
D,330,UX,0.0
D,330,UY,0.0
D,330,UZ,0.0
D,331,UX,0.0
D,331,UY,0.0
D,331,UZ,0.0
! ... 420 like lines cut
