/COM,CDB format Rev 5.5 created by Autodesk Algor FEA Translation Utility	Version 2017.00-WIN  10-Mar-2016
/PREP7
/NOPR
/TITLE,D:\Documents\new\screw.ds_data\1\ds
NUMOFF,NODE,  6403
NUMOFF,ELEM, 28864
NUMOFF,MAT ,     1
NUMOFF,TYPE,     1
MP,ALPX,1,1.1700000E-05
MP,ALPY,1,1.1700000E-05
MP,ALPZ,1,1.1700000E-05
MP,DENS,1,7.8548680E+03
MP,KXX,1,4.6759706E+01
MP,EX,1,1.9994796E+11
MP,EY,1,1.9994796E+11
MP,EZ,1,1.9994796E+11
MP,PRXY,1,2.9000000E-01
MP,PRYZ,1,2.9000000E-01
MP,PRXZ,1,2.9000000E-01
ET,1,SOLID72
N,R5.0,LOC,1,-50,6.12323e-15,7.10543e-15
N,R5.0,LOC,2,0,0,-100
N,R5.0,LOC,3,50,0,0
N,R5.0,LOC,4,-50,0,1290
N,R5.0,LOC,5,-40,0,1300
N,R5.0,LOC,6,40,0,1300
N,R5.0,LOC,7,50,6.12323e-15,1290
N,R5.0,LOC,8,-50,1.97982e-14,133.333
N,R5.0,LOC,9,50.0936,5.60318e-07,20.6377
N,R5.0,LOC,10,50,-3.06276,18.0412
N,R5.0,LOC,11,50,1.61871e-12,266.667
N,R5.0,LOC,12,-50.0937,9.67607e-08,153.971
N,R5.0,LOC,13,50.0937,-1.07017e-07,287.304
N,R5.0,LOC,14,-50,1.80895e-14,400
N,R5.0,LOC,15,50,-1.34296e-10,533.333
N,R5.0,LOC,16,-50.0937,-2.41727e-07,420.638
N,R5.0,LOC,17,50.0937,3.32691e-08,553.971
N,R5.0,LOC,18,-50,-5.31694e-14,666.667
N,R5.0,LOC,19,50,-3.67394e-14,800
N,R5.0,LOC,20,-50.0937,-2.56115e-07,687.304
! ... 6383 like lines cut
MAT, 1, TYPE, 1, REAL, 1
EN,R5.0,ATTR,4,1,1,1,1
EN,R5.0,NODE,3453,4965,4100,5105
EN,R5.0,ATTR,4,1,1,1,2
EN,R5.0,NODE,3614,3612,5105,3453
EN,R5.0,ATTR,4,1,1,1,3
EN,R5.0,NODE,3612,4100,5105,3453
EN,R5.0,ATTR,4,1,1,1,4
EN,R5.0,NODE,3435,4965,4948,4100
EN,R5.0,ATTR,4,1,1,1,5
EN,R5.0,NODE,3612,4100,3453,3435
EN,R5.0,ATTR,4,1,1,1,6
EN,R5.0,NODE,3453,4100,4965,3435
EN,R5.0,ATTR,4,1,1,1,7
EN,R5.0,NODE,5092,3480,4990,4940
EN,R5.0,ATTR,4,1,1,1,8
EN,R5.0,NODE,3426,5092,3480,3599
EN,R5.0,ATTR,4,1,1,1,9
EN,R5.0,NODE,3426,3480,5092,4940
EN,R5.0,ATTR,4,1,1,1,10
EN,R5.0,NODE,3426,5090,4940,5092
EN,R5.0,ATTR,4,1,1,1,11
EN,R5.0,NODE,3599,5090,3597,3426
EN,R5.0,ATTR,4,1,1,1,12
EN,R5.0,NODE,3599,5092,5090,3426
EN,R5.0,ATTR,4,1,1,1,13
EN,R5.0,NODE,3197,4734,4990,4991
EN,R5.0,ATTR,4,1,1,1,14
EN,R5.0,NODE,3482,3480,4991,3197
EN,R5.0,ATTR,4,1,1,1,15
EN,R5.0,NODE,3480,4990,4991,3197
EN,R5.0,ATTR,4,1,1,1,16
EN,R5.0,NODE,3197,3482,3594,5546
EN,R5.0,ATTR,4,1,1,1,17
EN,R5.0,NODE,4734,5087,4991,5546
EN,R5.0,ATTR,4,1,1,1,18
EN,R5.0,NODE,3197,4991,3482,5546
EN,R5.0,ATTR,4,1,1,1,19
EN,R5.0,NODE,3197,4734,4991,5546
EN,R5.0,ATTR,4,1,1,1,20
EN,R5.0,NODE,4734,3594,5087,5546
! ... 57688 like lines cut
SFE,2,3,PRES,1,R5.0
            1000
SFE,5,2,PRES,1,R5.0
            1000
SFE,8,2,PRES,1,R5.0
            1000
SFE,11,2,PRES,1,R5.0
            1000
SFE,14,3,PRES,1,R5.0
            1000
SFE,16,4,PRES,1,R5.0
            1000
SFE,25,3,PRES,1,R5.0
            1000
SFE,28,2,PRES,1,R5.0
            1000
SFE,32,3,PRES,1,R5.0
            1000
SFE,34,2,PRES,1,R5.0
            1000
SFE,38,2,PRES,1,R5.0
            1000
SFE,39,4,PRES,1,R5.0
            1000
SFE,47,4,PRES,1,R5.0
            1000
SFE,55,4,PRES,1,R5.0
            1000
SFE,64,3,PRES,1,R5.0
            1000
SFE,67,3,PRES,1,R5.0
            1000
SFE,70,2,PRES,1,R5.0
            1000
SFE,73,3,PRES,1,R5.0
            1000
SFE,76,2,PRES,1,R5.0
            1000
SFE,79,3,PRES,1,R5.0
            1000
! ... 4902 like lines cut
D,5,UX,0.0
D,5,UY,0.0
D,5,UZ,0.0
D,6,UX,0.0
D,6,UY,0.0
D,6,UZ,0.0
D,22,UX,0.0
D,22,UY,0.0
D,22,UZ,0.0
D,23,UX,0.0
D,23,UY,0.0
D,23,UZ,0.0
D,48,UX,0.0
D,48,UY,0.0
D,48,UZ,0.0
D,49,UX,0.0
D,49,UY,0.0
D,49,UZ,0.0
D,50,UX,0.0
D,50,UY,0.0
D,50,UZ,0.0
D,51,UX,0.0
D,51,UY,0.0
D,51,UZ,0.0
D,64,UX,0.0
D,64,UY,0.0
D,64,UZ,0.0
D,65,UX,0.0
D,65,UY,0.0
D,65,UZ,0.0
D,66,UX,0.0
D,66,UY,0.0
D,66,UZ,0.0
D,67,UX,0.0
D,67,UY,0.0
D,67,UZ,0.0
D,264,UX,0.0
D,264,UY,0.0
D,264,UZ,0.0
D,265,UX,0.0
D,265,UY,0.0
D,265,UZ,0.0
D,266,UX,0.0
D,266,UY,0.0
D,266,UZ,0.0
D,267,UX,0.0
D,267,UY,0.0
D,267,UZ,0.0
D,268,UX,0.0
D,268,UY,0.0
D,268,UZ,0.0
D,269,UX,0.0
D,269,UY,0.0
D,269,UZ,0.0
D,270,UX,0.0
D,270,UY,0.0
D,270,UZ,0.0
D,271,UX,0.0
D,271,UY,0.0
D,271,UZ,0.0
! ... 240 like lines cut
