/COM,CDB format Rev 5.5 created by Autodesk Algor FEA Translation Utility	Version 2017.00-WIN  10-Mar-2016
/PREP7
/NOPR
/TITLE,C:\Users\ivana\Documents\spherical tank_v2.ds_data\1\ds
NUMOFF,NODE,  4141
NUMOFF,ELEM, 13002
NUMOFF,MAT ,     1
NUMOFF,TYPE,     1
MP,ALPX,1,1.7300000E-05
MP,ALPY,1,1.7300000E-05
MP,ALPZ,1,1.7300000E-05
MP,DENS,1,8.0000000E+03
MP,KXX,1,1.6200000E+01
MP,C,1,5.0000000E+02
MP,EX,1,1.9750000E+11
MP,EY,1,1.9750000E+11
MP,EZ,1,1.9750000E+11
MP,PRXY,1,2.8500000E-01
MP,PRYZ,1,2.8500000E-01
MP,PRXZ,1,2.8500000E-01
ET,1,SOLID72
N,R5.0,LOC,1,-1.10218e-15,-1.34978e-31,-18
N,R5.0,LOC,2,-1.10218e-15,-1.34978e-31,18
N,R5.0,LOC,3,-20,1.70476e-15,0
N,R5.0,LOC,4,-1.22465e-15,-1.49976e-31,20
N,R5.0,LOC,5,20,1.22465e-16,0
N,R5.0,LOC,6,18,-6.59195e-17,-8.7178
N,R5.0,LOC,7,-1.22465e-15,-1.49976e-31,-20
N,R5.0,LOC,8,-18,4.57146e-18,-8.7178
N,R5.0,LOC,9,1.29294e-15,18,-8.7178
N,R5.0,LOC,10,5.96861e-16,20,0
N,R5.0,LOC,11,12.7279,12.7279,-8.7178
N,R5.0,LOC,12,14.1421,14.1421,0
N,R5.0,LOC,13,-14.1421,14.1421,0
N,R5.0,LOC,14,-12.7279,12.7279,-8.7178
N,R5.0,LOC,15,-2.59062e-15,-20,0
N,R5.0,LOC,16,-3.84761e-15,-18,-8.7178
N,R5.0,LOC,17,-14.1421,-14.1421,0
N,R5.0,LOC,18,-12.7279,-12.7279,-8.7178
N,R5.0,LOC,19,12.7279,-12.7279,-8.7178
N,R5.0,LOC,20,14.1421,-14.1421,0
! ... 4121 like lines cut
MAT, 1, TYPE, 1, REAL, 1
EN,R5.0,ATTR,4,1,1,1,1
EN,R5.0,NODE,805,3969,3373,3860
EN,R5.0,ATTR,4,1,1,1,2
EN,R5.0,NODE,805,3373,3374,3860
EN,R5.0,ATTR,4,1,1,1,3
EN,R5.0,NODE,867,3034,3908,3860
EN,R5.0,ATTR,4,1,1,1,4
EN,R5.0,NODE,1654,1653,2561,1689
EN,R5.0,ATTR,4,1,1,1,5
EN,R5.0,NODE,1689,2562,2561,3861
EN,R5.0,ATTR,4,1,1,1,6
EN,R5.0,NODE,2488,1654,3861,1690
EN,R5.0,ATTR,4,1,1,1,7
EN,R5.0,NODE,1654,1690,1689,3861
EN,R5.0,ATTR,4,1,1,1,8
EN,R5.0,NODE,1654,1689,2561,3861
EN,R5.0,ATTR,4,1,1,1,9
EN,R5.0,NODE,4002,1730,3861,1729
EN,R5.0,ATTR,4,1,1,1,10
EN,R5.0,NODE,2427,4002,3861,2428
EN,R5.0,ATTR,4,1,1,1,11
EN,R5.0,NODE,2488,2561,3861,1654
EN,R5.0,ATTR,4,1,1,1,12
EN,R5.0,NODE,2697,2824,2825,3862
EN,R5.0,ATTR,4,1,1,1,13
EN,R5.0,NODE,935,2825,2824,3862
EN,R5.0,ATTR,4,1,1,1,14
EN,R5.0,NODE,2697,2825,2826,3862
EN,R5.0,ATTR,4,1,1,1,15
EN,R5.0,NODE,937,2824,2697,3862
EN,R5.0,ATTR,4,1,1,1,16
EN,R5.0,NODE,1493,4026,2307,3863
EN,R5.0,ATTR,4,1,1,1,17
EN,R5.0,NODE,2307,4026,2573,3863
EN,R5.0,ATTR,4,1,1,1,18
EN,R5.0,NODE,1433,1434,1493,3863
EN,R5.0,ATTR,4,1,1,1,19
EN,R5.0,NODE,1433,1493,2525,3863
EN,R5.0,ATTR,4,1,1,1,20
EN,R5.0,NODE,1433,2525,2526,3863
! ... 25964 like lines cut
SFE,4,3,PRES,1,R5.0
             100
SFE,7,4,PRES,1,R5.0
             100
SFE,18,4,PRES,1,R5.0
             100
SFE,33,4,PRES,1,R5.0
             100
SFE,60,4,PRES,1,R5.0
             100
SFE,69,4,PRES,1,R5.0
             100
SFE,78,4,PRES,1,R5.0
             100
SFE,83,4,PRES,1,R5.0
             100
SFE,88,4,PRES,1,R5.0
             100
SFE,89,4,PRES,1,R5.0
             100
SFE,94,3,PRES,1,R5.0
             100
SFE,95,3,PRES,1,R5.0
             100
SFE,101,1,PRES,1,R5.0
             100
SFE,114,4,PRES,1,R5.0
             100
SFE,132,4,PRES,1,R5.0
             100
SFE,143,3,PRES,1,R5.0
             100
SFE,153,4,PRES,1,R5.0
             100
SFE,158,1,PRES,1,R5.0
             100
SFE,170,3,PRES,1,R5.0
             100
SFE,171,3,PRES,1,R5.0
             100
! ... 5768 like lines cut
D,21,UX,0.0
D,21,UY,0.0
D,21,UZ,0.0
D,22,UX,0.0
D,22,UY,0.0
D,22,UZ,0.0
D,23,UX,0.0
D,23,UY,0.0
D,23,UZ,0.0
D,24,UX,0.0
D,24,UY,0.0
D,24,UZ,0.0
D,25,UX,0.0
D,25,UY,0.0
D,25,UZ,0.0
D,26,UX,0.0
D,26,UY,0.0
D,26,UZ,0.0
D,27,UX,0.0
D,27,UY,0.0
D,27,UZ,0.0
D,28,UX,0.0
D,28,UY,0.0
D,28,UZ,0.0
D,29,UX,0.0
D,29,UY,0.0
D,29,UZ,0.0
D,30,UX,0.0
D,30,UY,0.0
D,30,UZ,0.0
D,31,UX,0.0
D,31,UY,0.0
D,31,UZ,0.0
D,32,UX,0.0
D,32,UY,0.0
D,32,UZ,0.0
D,33,UX,0.0
D,33,UY,0.0
D,33,UZ,0.0
D,34,UX,0.0
D,34,UY,0.0
D,34,UZ,0.0
D,35,UX,0.0
D,35,UY,0.0
D,35,UZ,0.0
D,36,UX,0.0
D,36,UY,0.0
D,36,UZ,0.0
D,244,UX,0.0
D,244,UY,0.0
D,244,UZ,0.0
D,245,UX,0.0
D,245,UY,0.0
D,245,UZ,0.0
D,246,UX,0.0
D,246,UY,0.0
D,246,UZ,0.0
D,247,UX,0.0
D,247,UY,0.0
D,247,UZ,0.0
! ... 516 like lines cut
