/COM,CDB format Rev 5.5 created by Autodesk Algor FEA Translation Utility	Version 2017.00-WIN  10-Mar-2016
/PREP7
/NOPR
/TITLE,D:\Documents\new\spring_v6.ds_data\1\ds
NUMOFF,NODE,  4636
NUMOFF,ELEM, 12436
NUMOFF,MAT ,     1
NUMOFF,TYPE,     1
MP,ALPX,1,1.2816000E-05
MP,ALPY,1,1.2816000E-05
MP,ALPZ,1,1.2816000E-05
MP,DENS,1,7.8547611E+03
MP,KXX,1,4.4838074E+01
MP,EX,1,2.0477429E+11
MP,EY,1,2.0477429E+11
MP,EZ,1,2.0477429E+11
MP,PRXY,1,2.9000000E-01
MP,PRYZ,1,2.9000000E-01
MP,PRXZ,1,2.9000000E-01
ET,1,SOLID72
N,R5.0,LOC,1,24.469,28.4175,-2.49212
N,R5.0,LOC,2,24.7682,28.1571,2.49212
N,R5.0,LOC,3,24.7682,28.1571,102.492
N,R5.0,LOC,4,24.469,28.4175,97.5079
N,R5.0,LOC,5,27.7515,32.1892,97.5079
N,R5.0,LOC,6,27.7515,32.1892,-2.49212
N,R5.0,LOC,7,28.0507,31.9288,102.492
N,R5.0,LOC,8,28.0507,31.9288,2.49212
N,R5.0,LOC,9,24.6186,28.2873,1.77636e-15
N,R5.0,LOC,10,22.8694,29.7197,2.70089
N,R5.0,LOC,11,20.8723,31.1545,2.90966
N,R5.0,LOC,12,18.7857,32.4557,3.11842
N,R5.0,LOC,13,16.6184,33.6175,3.3272
N,R5.0,LOC,14,14.3793,34.6343,3.53597
N,R5.0,LOC,15,12.0784,35.5019,3.74474
N,R5.0,LOC,16,9.72565,36.2172,3.9535
N,R5.0,LOC,17,7.33117,36.7771,4.16226
N,R5.0,LOC,18,4.90509,37.1786,4.37104
N,R5.0,LOC,19,2.45785,37.4197,4.5798
N,R5.0,LOC,20,7.62049e-05,37.5002,4.78857
! ... 4616 like lines cut
MAT, 1, TYPE, 1, REAL, 1
EN,R5.0,ATTR,4,1,1,1,1
EN,R5.0,NODE,852,2418,2662,4156
EN,R5.0,ATTR,4,1,1,1,2
EN,R5.0,NODE,852,2662,2663,4156
EN,R5.0,ATTR,4,1,1,1,3
EN,R5.0,NODE,3203,4027,4025,4156
EN,R5.0,ATTR,4,1,1,1,4
EN,R5.0,NODE,851,852,2663,4156
EN,R5.0,ATTR,4,1,1,1,5
EN,R5.0,NODE,851,2418,852,4156
EN,R5.0,ATTR,4,1,1,1,6
EN,R5.0,NODE,2418,4482,2662,4156
EN,R5.0,ATTR,4,1,1,1,7
EN,R5.0,NODE,2417,125,4027,4025
EN,R5.0,ATTR,4,1,1,1,8
EN,R5.0,NODE,4156,4482,3202,4027
EN,R5.0,ATTR,4,1,1,1,9
EN,R5.0,NODE,397,2144,3706,4157
EN,R5.0,ATTR,4,1,1,1,10
EN,R5.0,NODE,3706,3511,3715,4157
EN,R5.0,ATTR,4,1,1,1,11
EN,R5.0,NODE,1069,2974,4157,4369
EN,R5.0,ATTR,4,1,1,1,12
EN,R5.0,NODE,1069,1070,3512,4157
EN,R5.0,ATTR,4,1,1,1,13
EN,R5.0,NODE,3706,1613,3715,3511
EN,R5.0,ATTR,4,1,1,1,14
EN,R5.0,NODE,1070,3511,3512,4157
EN,R5.0,ATTR,4,1,1,1,15
EN,R5.0,NODE,1069,2974,2973,4157
EN,R5.0,ATTR,4,1,1,1,16
EN,R5.0,NODE,1069,2973,1070,4157
EN,R5.0,ATTR,4,1,1,1,17
EN,R5.0,NODE,2788,3328,2789,4158
EN,R5.0,ATTR,4,1,1,1,18
EN,R5.0,NODE,2788,1253,2789,3328
EN,R5.0,ATTR,4,1,1,1,19
EN,R5.0,NODE,2307,2788,2789,4158
EN,R5.0,ATTR,4,1,1,1,20
EN,R5.0,NODE,2307,741,2789,2788
! ... 24832 like lines cut
SFE,367,4,PRES,1,R5.0
            1000
SFE,369,4,PRES,1,R5.0
            1000
SFE,1868,3,PRES,1,R5.0
            1000
SFE,6984,3,PRES,1,R5.0
            1000
SFE,9100,4,PRES,1,R5.0
            1000
SFE,9718,4,PRES,1,R5.0
            1000
SFE,10343,4,PRES,1,R5.0
            1000
SFE,11296,4,PRES,1,R5.0
            1000
D,1,UX,0.0
D,1,UY,0.0
D,1,UZ,0.0
D,2,UX,0.0
D,2,UY,0.0
D,2,UZ,0.0
D,6,UX,0.0
D,6,UY,0.0
D,6,UZ,0.0
D,8,UX,0.0
D,8,UY,0.0
D,8,UZ,0.0
D,9,UX,0.0
D,9,UY,0.0
D,9,UZ,0.0
D,1509,UX,0.0
D,1509,UY,0.0
D,1509,UZ,0.0
D,2052,UX,0.0
D,2052,UY,0.0
D,2052,UZ,0.0
D,2053,UX,0.0
D,2053,UY,0.0
D,2053,UZ,0.0
D,4155,UX,0.0
D,4155,UY,0.0
D,4155,UZ,0.0
