/COM,CDB format Rev 5.5 created by Autodesk Algor FEA Translation Utility	Version 2017.00-WIN  10-Mar-2016
/PREP7
/NOPR
/TITLE,C:\Users\ivana\Documents\square_bar.ds_data\1\ds
NUMOFF,NODE,   389
NUMOFF,ELEM,  1031
NUMOFF,MAT ,     1
NUMOFF,TYPE,     1
MP,ALPX,1,1.1700000E-05
MP,ALPY,1,1.1700000E-05
MP,ALPZ,1,1.1700000E-05
MP,DENS,1,7.8548680E-09
MP,KXX,1,4.6759706E-02
MP,EX,1,1.9994796E+05
MP,EY,1,1.9994796E+05
MP,EZ,1,1.9994796E+05
MP,PRXY,1,2.9000000E-01
MP,PRYZ,1,2.9000000E-01
MP,PRXZ,1,2.9000000E-01
ET,1,SOLID72
N,R5.0,LOC,1,0.05,-0.05,0
N,R5.0,LOC,2,0.05,0.05,0
N,R5.0,LOC,3,0.05,0.05,2.5
N,R5.0,LOC,4,0.05,-0.05,2.5
N,R5.0,LOC,5,-0.05,-0.05,2.5
N,R5.0,LOC,6,-0.05,-0.05,0
N,R5.0,LOC,7,-0.05,0.05,2.5
N,R5.0,LOC,8,-0.05,0.05,0
N,R5.0,LOC,9,0.05,0,0
N,R5.0,LOC,10,0.05,0.05,0.0595238
N,R5.0,LOC,11,0.05,0.05,0.119048
N,R5.0,LOC,12,0.05,0.05,0.178571
N,R5.0,LOC,13,0.05,0.05,0.238095
N,R5.0,LOC,14,0.05,0.05,0.297619
N,R5.0,LOC,15,0.05,0.05,0.357143
N,R5.0,LOC,16,0.05,0.05,0.416667
N,R5.0,LOC,17,0.05,0.05,0.47619
N,R5.0,LOC,18,0.05,0.05,0.535714
N,R5.0,LOC,19,0.05,0.05,0.595238
N,R5.0,LOC,20,0.05,0.05,0.654762
! ... 369 like lines cut
MAT, 1, TYPE, 1, REAL, 1
EN,R5.0,ATTR,4,1,1,1,1
EN,R5.0,NODE,219,347,342,382
EN,R5.0,ATTR,4,1,1,1,2
EN,R5.0,NODE,265,382,342,347
EN,R5.0,ATTR,4,1,1,1,3
EN,R5.0,NODE,342,174,266,341
EN,R5.0,ATTR,4,1,1,1,4
EN,R5.0,NODE,218,224,225,347
EN,R5.0,ATTR,4,1,1,1,5
EN,R5.0,NODE,388,17,16,338
EN,R5.0,ATTR,4,1,1,1,6
EN,R5.0,NODE,219,382,224,347
EN,R5.0,ATTR,4,1,1,1,7
EN,R5.0,NODE,131,265,266,347
EN,R5.0,ATTR,4,1,1,1,8
EN,R5.0,NODE,132,224,133,382
EN,R5.0,ATTR,4,1,1,1,9
EN,R5.0,NODE,46,308,348,361
EN,R5.0,ATTR,4,1,1,1,10
EN,R5.0,NODE,46,308,309,348
EN,R5.0,ATTR,4,1,1,1,11
EN,R5.0,NODE,99,298,299,348
EN,R5.0,ATTR,4,1,1,1,12
EN,R5.0,NODE,99,258,257,348
EN,R5.0,ATTR,4,1,1,1,13
EN,R5.0,NODE,99,298,368,100
EN,R5.0,ATTR,4,1,1,1,14
EN,R5.0,NODE,298,310,309,348
EN,R5.0,ATTR,4,1,1,1,15
EN,R5.0,NODE,384,279,278,238
EN,R5.0,ATTR,4,1,1,1,16
EN,R5.0,NODE,238,237,278,349
EN,R5.0,ATTR,4,1,1,1,17
EN,R5.0,NODE,238,119,279,278
EN,R5.0,ATTR,4,1,1,1,18
EN,R5.0,NODE,278,162,329,330
EN,R5.0,ATTR,4,1,1,1,19
EN,R5.0,NODE,349,378,277,330
EN,R5.0,ATTR,4,1,1,1,20
EN,R5.0,NODE,210,234,209,350
! ... 2022 like lines cut
SFE,3,3,PRES,1,R5.0
            1000
SFE,5,1,PRES,1,R5.0
            1000
SFE,10,4,PRES,1,R5.0
            1000
SFE,18,1,PRES,1,R5.0
            1000
SFE,22,4,PRES,1,R5.0
            1000
SFE,31,3,PRES,1,R5.0
            1000
SFE,48,3,PRES,1,R5.0
            1000
SFE,65,4,PRES,1,R5.0
            1000
SFE,68,1,PRES,1,R5.0
            1000
SFE,100,3,PRES,1,R5.0
            1000
SFE,113,3,PRES,1,R5.0
            1000
SFE,114,4,PRES,1,R5.0
            1000
SFE,120,3,PRES,1,R5.0
            1000
SFE,128,4,PRES,1,R5.0
            1000
SFE,133,3,PRES,1,R5.0
            1000
SFE,149,1,PRES,1,R5.0
            1000
SFE,150,4,PRES,1,R5.0
            1000
SFE,152,2,PRES,1,R5.0
            1000
SFE,167,1,PRES,1,R5.0
            1000
SFE,176,1,PRES,1,R5.0
            1000
! ... 296 like lines cut
D,1,UX,0.0
D,1,UY,0.0
D,1,UZ,0.0
D,2,UX,0.0
D,2,UY,0.0
D,2,UZ,0.0
D,3,UY,0.0
D,4,UY,0.0
D,5,UY,0.0
D,6,UX,0.0
D,6,UY,0.0
D,6,UZ,0.0
D,7,UY,0.0
D,8,UX,0.0
D,8,UY,0.0
D,8,UZ,0.0
D,9,UX,0.0
D,9,UY,0.0
D,9,UZ,0.0
D,51,UY,0.0
D,93,UY,0.0
D,135,UX,0.0
D,135,UY,0.0
D,135,UZ,0.0
D,136,UY,0.0
D,178,UX,0.0
D,178,UY,0.0
D,178,UZ,0.0
D,179,UX,0.0
D,179,UY,0.0
D,179,UZ,0.0
D,180,UY,0.0
D,345,UY,0.0
D,346,UX,0.0
D,346,UY,0.0
D,346,UZ,0.0
