/COM,CDB format Rev 5.5 created by Autodesk Algor FEA Translation Utility	Version 2017.00-WIN  10-Mar-2016
/PREP7
/NOPR
/TITLE,C:\Users\ivana\Downloads\dwg\strange_cube.ds_data\1\ds
NUMOFF,NODE,  6061
NUMOFF,ELEM, 19835
NUMOFF,MAT ,     1
NUMOFF,TYPE,     1
MP,ALPX,1,2.3600000E-05
MP,ALPY,1,2.3600000E-05
MP,ALPZ,1,2.3600000E-05
MP,DENS,1,2.8100000E+03
MP,KXX,1,1.3000000E+02
MP,C,1,9.6000000E+02
MP,EX,1,7.1700000E+10
MP,EY,1,7.1700000E+10
MP,EZ,1,7.1700000E+10
MP,PRXY,1,3.3000000E-01
MP,PRYZ,1,3.3000000E-01
MP,PRXZ,1,3.3000000E-01
ET,1,SOLID72
N,R5.0,LOC,1,-85.6066,-35.6066,185.607
N,R5.0,LOC,2,-75,-40,190
N,R5.0,LOC,3,-64.3934,-35.6066,185.607
N,R5.0,LOC,4,-60,-25,190
N,R5.0,LOC,5,-60,-25,200
N,R5.0,LOC,6,-64.3934,-35.6066,200
N,R5.0,LOC,7,-85.6066,-35.6066,200
N,R5.0,LOC,8,-90,-25,190
N,R5.0,LOC,9,-75,-40,200
N,R5.0,LOC,10,-90,-25,200
N,R5.0,LOC,11,-85.6066,-14.3934,200
N,R5.0,LOC,12,-75,-10,200
N,R5.0,LOC,13,-64.3934,-14.3934,200
N,R5.0,LOC,14,-64.3934,-14.3934,185.607
N,R5.0,LOC,15,-75,-10,190
N,R5.0,LOC,16,-85.6066,-14.3934,185.607
N,R5.0,LOC,17,-100,-10,175
N,R5.0,LOC,18,-100,-14.3934,185.607
N,R5.0,LOC,19,-100,-25,190
N,R5.0,LOC,20,-89.5141,-10.4859,178.787
! ... 6041 like lines cut
MAT, 1, TYPE, 1, REAL, 1
EN,R5.0,ATTR,4,1,1,1,1
EN,R5.0,NODE,2178,5256,5299,5078
EN,R5.0,ATTR,4,1,1,1,2
EN,R5.0,NODE,2178,2177,3731,2176
EN,R5.0,ATTR,4,1,1,1,3
EN,R5.0,NODE,28,5758,42,4990
EN,R5.0,ATTR,4,1,1,1,4
EN,R5.0,NODE,4826,5069,4962,4991
EN,R5.0,ATTR,4,1,1,1,5
EN,R5.0,NODE,4826,4962,4907,4991
EN,R5.0,ATTR,4,1,1,1,6
EN,R5.0,NODE,1235,4907,3143,4991
EN,R5.0,ATTR,4,1,1,1,7
EN,R5.0,NODE,3143,4962,5989,4991
EN,R5.0,ATTR,4,1,1,1,8
EN,R5.0,NODE,3143,4907,4962,4991
EN,R5.0,ATTR,4,1,1,1,9
EN,R5.0,NODE,4991,4907,1242,1235
EN,R5.0,ATTR,4,1,1,1,10
EN,R5.0,NODE,5010,502,5467,4992
EN,R5.0,ATTR,4,1,1,1,11
EN,R5.0,NODE,3152,498,502,3153
EN,R5.0,ATTR,4,1,1,1,12
EN,R5.0,NODE,3152,498,504,502
EN,R5.0,ATTR,4,1,1,1,13
EN,R5.0,NODE,502,3153,5467,3152
EN,R5.0,ATTR,4,1,1,1,14
EN,R5.0,NODE,1246,5257,3111,3105
EN,R5.0,ATTR,4,1,1,1,15
EN,R5.0,NODE,618,5221,902,4993
EN,R5.0,ATTR,4,1,1,1,16
EN,R5.0,NODE,902,618,4993,627
EN,R5.0,ATTR,4,1,1,1,17
EN,R5.0,NODE,627,5249,5364,4993
EN,R5.0,ATTR,4,1,1,1,18
EN,R5.0,NODE,617,627,628,4993
EN,R5.0,ATTR,4,1,1,1,19
EN,R5.0,NODE,5364,5225,4993,5888
EN,R5.0,ATTR,4,1,1,1,20
EN,R5.0,NODE,627,5364,628,4993
! ... 39630 like lines cut
SFE,260,4,PRES,1,R5.0
            1000
SFE,420,4,PRES,1,R5.0
            1000
SFE,513,4,PRES,1,R5.0
            1000
SFE,694,4,PRES,1,R5.0
            1000
SFE,698,4,PRES,1,R5.0
            1000
SFE,877,4,PRES,1,R5.0
            1000
SFE,878,4,PRES,1,R5.0
            1000
SFE,1941,4,PRES,1,R5.0
            1000
SFE,2015,4,PRES,1,R5.0
            1000
SFE,2017,4,PRES,1,R5.0
            1000
SFE,2021,4,PRES,1,R5.0
            1000
SFE,2053,4,PRES,1,R5.0
            1000
SFE,2065,4,PRES,1,R5.0
            1000
SFE,2066,4,PRES,1,R5.0
            1000
SFE,2099,4,PRES,1,R5.0
            1000
SFE,2269,4,PRES,1,R5.0
            1000
SFE,2642,4,PRES,1,R5.0
            1000
SFE,2736,3,PRES,1,R5.0
            1000
SFE,2804,4,PRES,1,R5.0
            1000
SFE,2805,4,PRES,1,R5.0
            1000
! ... 1172 like lines cut
D,2549,UX,0.0
D,2549,UY,0.0
D,2549,UZ,0.0
D,2550,UX,0.0
D,2550,UY,0.0
D,2550,UZ,0.0
D,2551,UX,0.0
D,2551,UY,0.0
D,2551,UZ,0.0
D,2552,UX,0.0
D,2552,UY,0.0
D,2552,UZ,0.0
D,2554,UX,0.0
D,2554,UY,0.0
D,2554,UZ,0.0
D,2556,UX,0.0
D,2556,UY,0.0
D,2556,UZ,0.0
D,2557,UX,0.0
D,2557,UY,0.0
D,2557,UZ,0.0
D,2558,UX,0.0
D,2558,UY,0.0
D,2558,UZ,0.0
D,2559,UX,0.0
D,2559,UY,0.0
D,2559,UZ,0.0
D,2560,UX,0.0
D,2560,UY,0.0
D,2560,UZ,0.0
D,2561,UX,0.0
D,2561,UY,0.0
D,2561,UZ,0.0
D,2563,UX,0.0
D,2563,UY,0.0
D,2563,UZ,0.0
D,2564,UX,0.0
D,2564,UY,0.0
D,2564,UZ,0.0
D,2566,UX,0.0
D,2566,UY,0.0
D,2566,UZ,0.0
D,2567,UX,0.0
D,2567,UY,0.0
D,2567,UZ,0.0
D,2568,UX,0.0
D,2568,UY,0.0
D,2568,UZ,0.0
D,2569,UX,0.0
D,2569,UY,0.0
D,2569,UZ,0.0
D,2570,UX,0.0
D,2570,UY,0.0
D,2570,UZ,0.0
D,2571,UX,0.0
D,2571,UY,0.0
D,2571,UZ,0.0
D,2572,UX,0.0
D,2572,UY,0.0
D,2572,UZ,0.0
! ... 1113 like lines cut
