/COM,CDB format Rev 5.5 created by Autodesk Algor FEA Translation Utility	Version 2017.00-WIN  10-Mar-2016
/PREP7
/NOPR
/TITLE,C:\Users\ivana\Documents\test_sample.ds_data\1\ds
NUMOFF,NODE,  8723
NUMOFF,ELEM, 43005
NUMOFF,MAT ,     1
NUMOFF,TYPE,     1
MP,ALPX,1,1.1700000E-05
MP,ALPY,1,1.1700000E-05
MP,ALPZ,1,1.1700000E-05
MP,DENS,1,7.8548680E-09
MP,KXX,1,4.6759706E-02
MP,EX,1,1.9994796E+05
MP,EY,1,1.9994796E+05
MP,EZ,1,1.9994796E+05
MP,PRXY,1,2.9000000E-01
MP,PRYZ,1,2.9000000E-01
MP,PRXZ,1,2.9000000E-01
ET,1,SOLID72
N,R5.0,LOC,1,-25.6699,-5,6.12323e-16
N,R5.0,LOC,2,25.6699,-5,6.12323e-16
N,R5.0,LOC,3,25.6699,0,5
N,R5.0,LOC,4,25.6699,5,0
N,R5.0,LOC,5,-25.6699,5,0
N,R5.0,LOC,6,-25.6699,0,5
N,R5.0,LOC,7,25.6699,-6.12323e-16,-5
N,R5.0,LOC,8,-25.6699,-6.12323e-16,-5
N,R5.0,LOC,9,-30,-9.18485e-16,-7.5
N,R5.0,LOC,10,-30,0,7.5
N,R5.0,LOC,11,-30,-7.5,9.18485e-16
N,R5.0,LOC,12,-30,7.5,0
N,R5.0,LOC,13,-45,-7.5,9.18485e-16
N,R5.0,LOC,14,-45,7.5,0
N,R5.0,LOC,15,45,-7.5,9.18485e-16
N,R5.0,LOC,16,45,7.5,0
N,R5.0,LOC,17,30,-7.5,9.18485e-16
N,R5.0,LOC,18,30,7.5,0
N,R5.0,LOC,19,30,0,7.5
N,R5.0,LOC,20,30,-9.18485e-16,-7.5
! ... 8703 like lines cut
MAT, 1, TYPE, 1, REAL, 1
EN,R5.0,ATTR,4,1,1,1,1
EN,R5.0,NODE,4314,3092,3301,3015
EN,R5.0,ATTR,4,1,1,1,2
EN,R5.0,NODE,4314,3173,3092,3015
EN,R5.0,ATTR,4,1,1,1,3
EN,R5.0,NODE,4742,3942,4314,3015
EN,R5.0,ATTR,4,1,1,1,4
EN,R5.0,NODE,3092,3015,5729,3301
EN,R5.0,ATTR,4,1,1,1,5
EN,R5.0,NODE,5729,3351,5728,3015
EN,R5.0,ATTR,4,1,1,1,6
EN,R5.0,NODE,3625,3240,3017,3016
EN,R5.0,ATTR,4,1,1,1,7
EN,R5.0,NODE,6361,6362,3042,3098
EN,R5.0,ATTR,4,1,1,1,8
EN,R5.0,NODE,3823,3228,3625,3016
EN,R5.0,ATTR,4,1,1,1,9
EN,R5.0,NODE,3823,3178,3228,3016
EN,R5.0,ATTR,4,1,1,1,10
EN,R5.0,NODE,4025,3042,3178,3016
EN,R5.0,ATTR,4,1,1,1,11
EN,R5.0,NODE,4025,3178,3823,3016
EN,R5.0,ATTR,4,1,1,1,12
EN,R5.0,NODE,3017,3098,3042,3240
EN,R5.0,ATTR,4,1,1,1,13
EN,R5.0,NODE,3017,3240,3042,3016
EN,R5.0,ATTR,4,1,1,1,14
EN,R5.0,NODE,3625,3228,3240,3016
EN,R5.0,ATTR,4,1,1,1,15
EN,R5.0,NODE,3823,3016,4166,6867
EN,R5.0,ATTR,4,1,1,1,16
EN,R5.0,NODE,4213,4024,3204,3017
EN,R5.0,ATTR,4,1,1,1,17
EN,R5.0,NODE,4213,5571,3204,4024
EN,R5.0,ATTR,4,1,1,1,18
EN,R5.0,NODE,3823,6424,4025,3016
EN,R5.0,ATTR,4,1,1,1,19
EN,R5.0,NODE,6867,4166,4570,3016
EN,R5.0,ATTR,4,1,1,1,20
EN,R5.0,NODE,4166,3016,3625,3017
! ... 85970 like lines cut
SFE,1468,4,PRES,1,R5.0
           -1000
SFE,1605,4,PRES,1,R5.0
           -1000
SFE,5265,1,PRES,1,R5.0
           -1000
SFE,6123,4,PRES,1,R5.0
           -1000
SFE,6965,3,PRES,1,R5.0
           -1000
SFE,6969,4,PRES,1,R5.0
           -1000
SFE,8262,4,PRES,1,R5.0
           -1000
SFE,9081,4,PRES,1,R5.0
           -1000
SFE,10084,4,PRES,1,R5.0
           -1000
SFE,10903,4,PRES,1,R5.0
           -1000
SFE,10965,1,PRES,1,R5.0
           -1000
SFE,11762,4,PRES,1,R5.0
           -1000
SFE,12397,4,PRES,1,R5.0
           -1000
SFE,12398,4,PRES,1,R5.0
           -1000
SFE,12400,4,PRES,1,R5.0
           -1000
SFE,12904,4,PRES,1,R5.0
           -1000
SFE,13010,3,PRES,1,R5.0
           -1000
SFE,13012,4,PRES,1,R5.0
           -1000
SFE,13013,4,PRES,1,R5.0
           -1000
SFE,13016,4,PRES,1,R5.0
           -1000
! ... 632 like lines cut
D,9,UX,0.0
D,9,UY,0.0
D,9,UZ,0.0
D,10,UX,0.0
D,10,UY,0.0
D,10,UZ,0.0
D,11,UX,0.0
D,11,UY,0.0
D,11,UZ,0.0
D,12,UX,0.0
D,12,UY,0.0
D,12,UZ,0.0
D,13,UX,0.0
D,13,UY,0.0
D,13,UZ,0.0
D,14,UX,0.0
D,14,UY,0.0
D,14,UZ,0.0
D,165,UX,0.0
D,165,UY,0.0
D,165,UZ,0.0
D,166,UX,0.0
D,166,UY,0.0
D,166,UZ,0.0
D,167,UX,0.0
D,167,UY,0.0
D,167,UZ,0.0
D,168,UX,0.0
D,168,UY,0.0
D,168,UZ,0.0
D,169,UX,0.0
D,169,UY,0.0
D,169,UZ,0.0
D,170,UX,0.0
D,170,UY,0.0
D,170,UZ,0.0
D,171,UX,0.0
D,171,UY,0.0
D,171,UZ,0.0
D,172,UX,0.0
D,172,UY,0.0
D,172,UZ,0.0
D,173,UX,0.0
D,173,UY,0.0
D,173,UZ,0.0
D,174,UX,0.0
D,174,UY,0.0
D,174,UZ,0.0
D,175,UX,0.0
D,175,UY,0.0
D,175,UZ,0.0
D,176,UX,0.0
D,176,UY,0.0
D,176,UZ,0.0
D,177,UX,0.0
D,177,UY,0.0
D,177,UZ,0.0
D,178,UX,0.0
D,178,UY,0.0
D,178,UZ,0.0
! ... 1656 like lines cut
