/COM,CDB format Rev 5.5 created by Autodesk Algor FEA Translation Utility	Version 2017.00-WIN  10-Mar-2016
/PREP7
/NOPR
/TITLE,C:\Users\ivana\Documents\tube.ds_data\1\ds
NUMOFF,NODE,  3574
NUMOFF,ELEM, 10444
NUMOFF,MAT ,     1
NUMOFF,TYPE,     1
MP,ALPX,1,1.1700000E-05
MP,ALPY,1,1.1700000E-05
MP,ALPZ,1,1.1700000E-05
MP,DENS,1,7.8548680E-09
MP,KXX,1,4.6759706E-02
MP,EX,1,1.9994796E+05
MP,EY,1,1.9994796E+05
MP,EZ,1,1.9994796E+05
MP,PRXY,1,2.9000000E-01
MP,PRYZ,1,2.9000000E-01
MP,PRXZ,1,2.9000000E-01
ET,1,SOLID72
N,R5.0,LOC,1,-50,0,0
N,R5.0,LOC,2,-50,0,250
N,R5.0,LOC,3,50,6.12323e-15,250
N,R5.0,LOC,4,50,6.12323e-15,0
N,R5.0,LOC,5,-52,0,0
N,R5.0,LOC,6,-52,0,250
N,R5.0,LOC,7,52,6.36816e-15,250
N,R5.0,LOC,8,52,6.36816e-15,0
N,R5.0,LOC,9,-50,0,6.75676
N,R5.0,LOC,10,-50,0,13.5135
N,R5.0,LOC,11,-50,0,20.2703
N,R5.0,LOC,12,-50,0,27.027
N,R5.0,LOC,13,-50,0,33.7838
N,R5.0,LOC,14,-50,0,40.5405
N,R5.0,LOC,15,-50,0,47.2973
N,R5.0,LOC,16,-50,0,54.0541
N,R5.0,LOC,17,-50,0,60.8108
N,R5.0,LOC,18,-50,0,67.5676
N,R5.0,LOC,19,-50,0,74.3243
N,R5.0,LOC,20,-50,0,81.0811
! ... 3554 like lines cut
MAT, 1, TYPE, 1, REAL, 1
EN,R5.0,ATTR,4,1,1,1,1
EN,R5.0,NODE,3395,3396,949,3426
EN,R5.0,ATTR,4,1,1,1,2
EN,R5.0,NODE,3372,820,3305,3304
EN,R5.0,ATTR,4,1,1,1,3
EN,R5.0,NODE,3174,3175,769,3256
EN,R5.0,ATTR,4,1,1,1,4
EN,R5.0,NODE,2547,1718,2514,2513
EN,R5.0,ATTR,4,1,1,1,5
EN,R5.0,NODE,2546,2545,1614,2478
EN,R5.0,ATTR,4,1,1,1,6
EN,R5.0,NODE,2544,1612,2477,2476
EN,R5.0,ATTR,4,1,1,1,7
EN,R5.0,NODE,2346,2347,1561,2428
EN,R5.0,ATTR,4,1,1,1,8
EN,R5.0,NODE,2370,1500,1501,2286
EN,R5.0,ATTR,4,1,1,1,9
EN,R5.0,NODE,1510,1421,2294,1420
EN,R5.0,ATTR,4,1,1,1,10
EN,R5.0,NODE,2190,2089,1312,2090
EN,R5.0,ATTR,4,1,1,1,11
EN,R5.0,NODE,1167,1923,270,1924
EN,R5.0,ATTR,4,1,1,1,12
EN,R5.0,NODE,634,635,3129,3035
EN,R5.0,ATTR,4,1,1,1,13
EN,R5.0,NODE,2949,3049,552,3048
EN,R5.0,ATTR,4,1,1,1,14
EN,R5.0,NODE,27,28,1958,188
EN,R5.0,ATTR,4,1,1,1,15
EN,R5.0,NODE,27,28,188,2783
EN,R5.0,ATTR,4,1,1,1,16
EN,R5.0,NODE,85,2820,2819,246
EN,R5.0,ATTR,4,1,1,1,17
EN,R5.0,NODE,2782,189,28,188
EN,R5.0,ATTR,4,1,1,1,18
EN,R5.0,NODE,189,29,28,1959
EN,R5.0,ATTR,4,1,1,1,19
EN,R5.0,NODE,2787,24,184,25
EN,R5.0,ATTR,4,1,1,1,20
EN,R5.0,NODE,2787,25,184,185
! ... 20848 like lines cut
SFE,9,3,PRES,1,R5.0
            1000
SFE,42,4,PRES,1,R5.0
            1000
SFE,60,1,PRES,1,R5.0
            1000
SFE,63,3,PRES,1,R5.0
            1000
SFE,66,4,PRES,1,R5.0
            1000
SFE,77,3,PRES,1,R5.0
            1000
SFE,124,2,PRES,1,R5.0
            1000
SFE,128,1,PRES,1,R5.0
            1000
SFE,134,3,PRES,1,R5.0
            1000
SFE,135,3,PRES,1,R5.0
            1000
SFE,142,3,PRES,1,R5.0
            1000
SFE,146,3,PRES,1,R5.0
            1000
SFE,147,3,PRES,1,R5.0
            1000
SFE,148,2,PRES,1,R5.0
            1000
SFE,152,3,PRES,1,R5.0
            1000
SFE,165,3,PRES,1,R5.0
            1000
SFE,167,2,PRES,1,R5.0
            1000
SFE,169,4,PRES,1,R5.0
            1000
SFE,170,3,PRES,1,R5.0
            1000
SFE,178,3,PRES,1,R5.0
            1000
! ... 6768 like lines cut
D,1,UX,0.0
D,1,UY,0.0
D,1,UZ,0.0
D,2,UX,0.0
D,2,UY,0.0
D,2,UZ,0.0
D,3,UX,0.0
D,3,UY,0.0
D,3,UZ,0.0
D,4,UX,0.0
D,4,UY,0.0
D,4,UZ,0.0
D,5,UX,0.0
D,5,UY,0.0
D,5,UZ,0.0
D,6,UX,0.0
D,6,UY,0.0
D,6,UZ,0.0
D,7,UX,0.0
D,7,UY,0.0
D,7,UZ,0.0
D,8,UX,0.0
D,8,UY,0.0
D,8,UZ,0.0
D,45,UX,0.0
D,45,UY,0.0
D,45,UZ,0.0
D,46,UX,0.0
D,46,UY,0.0
D,46,UZ,0.0
D,47,UX,0.0
D,47,UY,0.0
D,47,UZ,0.0
D,48,UX,0.0
D,48,UY,0.0
D,48,UZ,0.0
D,49,UX,0.0
D,49,UY,0.0
D,49,UZ,0.0
D,50,UX,0.0
D,50,UY,0.0
D,50,UZ,0.0
D,51,UX,0.0
D,51,UY,0.0
D,51,UZ,0.0
D,52,UX,0.0
D,52,UY,0.0
D,52,UZ,0.0
D,53,UX,0.0
D,53,UY,0.0
D,53,UZ,0.0
D,54,UX,0.0
D,54,UY,0.0
D,54,UZ,0.0
D,55,UX,0.0
D,55,UY,0.0
D,55,UZ,0.0
D,56,UX,0.0
D,56,UY,0.0
D,56,UZ,0.0
! ... 504 like lines cut
