/COM,CDB format Rev 5.5 created by Autodesk Algor FEA Translation Utility	Version 2017.00-WIN  10-Mar-2016
/PREP7
/NOPR
/TITLE,D:\Documents\new\turbine.ds_data\1\ds
NUMOFF,NODE,  3006
NUMOFF,ELEM, 11335
NUMOFF,MAT ,     1
NUMOFF,TYPE,     1
MP,ALPX,1,1.7200000E-05
MP,ALPY,1,1.7200000E-05
MP,ALPZ,1,1.7200000E-05
MP,DENS,1,8.0000000E+03
MP,KXX,1,1.6000000E+01
MP,C,1,5.0000000E+02
MP,EX,1,1.9300000E+11
MP,EY,1,1.9300000E+11
MP,EZ,1,1.9300000E+11
MP,PRXY,1,2.8500000E-01
MP,PRYZ,1,2.8500000E-01
MP,PRXZ,1,2.8500000E-01
ET,1,SOLID72
N,R5.0,LOC,1,33.6603,43.497,11.6987
N,R5.0,LOC,2,10.5662,53.9755,11.6987
N,R5.0,LOC,3,10.5662,155,11.6987
N,R5.0,LOC,4,33.6603,155,11.6987
N,R5.0,LOC,5,-33.6603,43.497,88.3013
N,R5.0,LOC,6,-33.6603,155,88.3013
N,R5.0,LOC,7,-10.5662,155,88.3013
N,R5.0,LOC,8,-10.5662,53.9755,88.3013
N,R5.0,LOC,9,-55,-6.73556e-15,0
N,R5.0,LOC,10,-55,-6.73556e-15,11.6987
N,R5.0,LOC,11,-54.4996,7.40214,11.6987
N,R5.0,LOC,12,-55,-2.02061e-14,22.3686
N,R5.0,LOC,13,-55,-2.82708e-15,77.6314
N,R5.0,LOC,14,-41.461,36.1384,11.6987
N,R5.0,LOC,15,-20.8394,50.8991,11.6987
N,R5.0,LOC,16,-52.0273,17.8371,88.3013
N,R5.0,LOC,17,-55,-6.73556e-15,88.3013
N,R5.0,LOC,18,-55,-6.73556e-15,100
N,R5.0,LOC,19,55,0,100
N,R5.0,LOC,20,55,0,88.3013
! ... 2986 like lines cut
MAT, 1, TYPE, 1, REAL, 1
EN,R5.0,ATTR,4,1,1,1,1
EN,R5.0,NODE,2814,2173,2405,2085
EN,R5.0,ATTR,4,1,1,1,2
EN,R5.0,NODE,1693,2814,2672,2085
EN,R5.0,ATTR,4,1,1,1,3
EN,R5.0,NODE,1693,1699,2653,1684
EN,R5.0,ATTR,4,1,1,1,4
EN,R5.0,NODE,2811,1699,2653,2085
EN,R5.0,ATTR,4,1,1,1,5
EN,R5.0,NODE,2811,1683,2653,1699
EN,R5.0,ATTR,4,1,1,1,6
EN,R5.0,NODE,1693,1699,2814,2085
EN,R5.0,ATTR,4,1,1,1,7
EN,R5.0,NODE,66,207,1143,2526
EN,R5.0,ATTR,4,1,1,1,8
EN,R5.0,NODE,1143,2526,1175,2086
EN,R5.0,ATTR,4,1,1,1,9
EN,R5.0,NODE,66,207,2526,2
EN,R5.0,ATTR,4,1,1,1,10
EN,R5.0,NODE,2970,66,1143,2086
EN,R5.0,ATTR,4,1,1,1,11
EN,R5.0,NODE,66,2526,2555,2
EN,R5.0,ATTR,4,1,1,1,12
EN,R5.0,NODE,2640,2555,2299,2086
EN,R5.0,ATTR,4,1,1,1,13
EN,R5.0,NODE,1549,1585,2307,2087
EN,R5.0,ATTR,4,1,1,1,14
EN,R5.0,NODE,2338,2088,2307,2087
EN,R5.0,ATTR,4,1,1,1,15
EN,R5.0,NODE,1583,2814,2405,2085
EN,R5.0,ATTR,4,1,1,1,16
EN,R5.0,NODE,1584,2405,2087,2085
EN,R5.0,ATTR,4,1,1,1,17
EN,R5.0,NODE,1584,2578,1585,2087
EN,R5.0,ATTR,4,1,1,1,18
EN,R5.0,NODE,2811,2088,2173,2087
EN,R5.0,ATTR,4,1,1,1,19
EN,R5.0,NODE,1547,2672,1583,2085
EN,R5.0,ATTR,4,1,1,1,20
EN,R5.0,NODE,1549,1584,1585,2087
! ... 22630 like lines cut
SFE,20,4,PRES,1,R5.0
            1000
SFE,229,4,PRES,1,R5.0
            1000
SFE,248,4,PRES,1,R5.0
            1000
SFE,368,1,PRES,1,R5.0
            1000
SFE,523,4,PRES,1,R5.0
            1000
SFE,578,4,PRES,1,R5.0
            1000
SFE,619,4,PRES,1,R5.0
            1000
SFE,621,4,PRES,1,R5.0
            1000
SFE,680,4,PRES,1,R5.0
            1000
SFE,694,4,PRES,1,R5.0
            1000
SFE,697,4,PRES,1,R5.0
            1000
SFE,728,4,PRES,1,R5.0
            1000
SFE,792,1,PRES,1,R5.0
            1000
SFE,822,4,PRES,1,R5.0
            1000
SFE,845,4,PRES,1,R5.0
            1000
SFE,848,3,PRES,1,R5.0
            1000
SFE,895,3,PRES,1,R5.0
            1000
SFE,925,2,PRES,1,R5.0
            1000
SFE,961,1,PRES,1,R5.0
            1000
SFE,966,4,PRES,1,R5.0
            1000
! ... 2228 like lines cut
D,41,UX,0.0
D,41,UY,0.0
D,41,UZ,0.0
D,42,UX,0.0
D,42,UY,0.0
D,42,UZ,0.0
D,43,UX,0.0
D,43,UY,0.0
D,43,UZ,0.0
D,44,UX,0.0
D,44,UY,0.0
D,44,UZ,0.0
D,305,UX,0.0
D,305,UY,0.0
D,305,UZ,0.0
D,306,UX,0.0
D,306,UY,0.0
D,306,UZ,0.0
D,307,UX,0.0
D,307,UY,0.0
D,307,UZ,0.0
D,308,UX,0.0
D,308,UY,0.0
D,308,UZ,0.0
D,309,UX,0.0
D,309,UY,0.0
D,309,UZ,0.0
D,310,UX,0.0
D,310,UY,0.0
D,310,UZ,0.0
D,311,UX,0.0
D,311,UY,0.0
D,311,UZ,0.0
D,312,UX,0.0
D,312,UY,0.0
D,312,UZ,0.0
D,313,UX,0.0
D,313,UY,0.0
D,313,UZ,0.0
D,314,UX,0.0
D,314,UY,0.0
D,314,UZ,0.0
D,315,UX,0.0
D,315,UY,0.0
D,315,UZ,0.0
D,316,UX,0.0
D,316,UY,0.0
D,316,UZ,0.0
D,317,UX,0.0
D,317,UY,0.0
D,317,UZ,0.0
D,318,UX,0.0
D,318,UY,0.0
D,318,UZ,0.0
D,319,UX,0.0
D,319,UY,0.0
D,319,UZ,0.0
D,320,UX,0.0
D,320,UY,0.0
D,320,UZ,0.0
! ... 468 like lines cut
