/COM,CDB format Rev 5.5 created by Autodesk Algor FEA Translation Utility	Version 2017.00-WIN  10-Mar-2016
/PREP7
/NOPR
/TITLE,C:\Users\ivana\Documents\wheel rim.ds_data\1\ds
NUMOFF,NODE,  7101
NUMOFF,ELEM, 22641
NUMOFF,MAT ,     1
NUMOFF,TYPE,     1
MP,ALPX,1,1.1700000E-05
MP,ALPY,1,1.1700000E-05
MP,ALPZ,1,1.1700000E-05
MP,DENS,1,7.8548680E+03
MP,KXX,1,4.6759706E+01
MP,EX,1,1.9994796E+11
MP,EY,1,1.9994796E+11
MP,EZ,1,1.9994796E+11
MP,PRXY,1,2.9000000E-01
MP,PRYZ,1,2.9000000E-01
MP,PRXZ,1,2.9000000E-01
ET,1,SOLID72
N,R5.0,LOC,1,47.3576,79.8308,-24.7993
N,R5.0,LOC,2,45.457,83.5931,-26.1687
N,R5.0,LOC,3,45.4527,86.1786,15.6799
N,R5.0,LOC,4,47.3576,81.7891,17.2775
N,R5.0,LOC,5,71.9748,176.561,-60.0064
N,R5.0,LOC,6,87.076,185.509,-63.2632
N,R5.0,LOC,7,97.0785,203.361,-69.7608
N,R5.0,LOC,8,95.144,203.361,-69.7608
N,R5.0,LOC,9,85.0758,185.509,-63.263
N,R5.0,LOC,10,69.9727,176.56,-60.006
N,R5.0,LOC,11,47.3566,113.479,5.74329
N,R5.0,LOC,12,49.35,113.479,5.74329
N,R5.0,LOC,13,69.9529,183.813,31.3426
N,R5.0,LOC,14,85.072,192.914,34.6553
N,R5.0,LOC,15,109.933,239.309,-63.9151
N,R5.0,LOC,16,109.933,242.061,52.5432
N,R5.0,LOC,17,110.527,238.874,51.3834
N,R5.0,LOC,18,110.526,235.66,-64.5085
N,R5.0,LOC,19,112.527,235.659,-64.5087
N,R5.0,LOC,20,110.763,246.466,-62.7514
! ... 7081 like lines cut
MAT, 1, TYPE, 1, REAL, 1
EN,R5.0,ATTR,4,1,1,1,1
EN,R5.0,NODE,6594,6593,6469,6435
EN,R5.0,ATTR,4,1,1,1,2
EN,R5.0,NODE,6497,6437,6456,6435
EN,R5.0,ATTR,4,1,1,1,3
EN,R5.0,NODE,6497,6456,6438,6435
EN,R5.0,ATTR,4,1,1,1,4
EN,R5.0,NODE,6593,6558,6789,6564
EN,R5.0,ATTR,4,1,1,1,5
EN,R5.0,NODE,6492,6438,6456,6435
EN,R5.0,ATTR,4,1,1,1,6
EN,R5.0,NODE,6492,6437,6469,6435
EN,R5.0,ATTR,4,1,1,1,7
EN,R5.0,NODE,57,191,1807,6436
EN,R5.0,ATTR,4,1,1,1,8
EN,R5.0,NODE,191,6971,1807,6436
EN,R5.0,ATTR,4,1,1,1,9
EN,R5.0,NODE,1807,6971,6691,6436
EN,R5.0,ATTR,4,1,1,1,10
EN,R5.0,NODE,1807,6691,1808,6436
EN,R5.0,ATTR,4,1,1,1,11
EN,R5.0,NODE,4254,6971,1757,6436
EN,R5.0,ATTR,4,1,1,1,12
EN,R5.0,NODE,6497,6457,6437,6435
EN,R5.0,ATTR,4,1,1,1,13
EN,R5.0,NODE,6610,6562,6457,6435
EN,R5.0,ATTR,4,1,1,1,14
EN,R5.0,NODE,6610,6510,6562,6435
EN,R5.0,ATTR,4,1,1,1,15
EN,R5.0,NODE,6648,6593,6435,6492
EN,R5.0,ATTR,4,1,1,1,16
EN,R5.0,NODE,6510,6497,6438,6435
EN,R5.0,ATTR,4,1,1,1,17
EN,R5.0,NODE,6492,6844,6485,6512
EN,R5.0,ATTR,4,1,1,1,18
EN,R5.0,NODE,6512,6511,6485,6437
EN,R5.0,ATTR,4,1,1,1,19
EN,R5.0,NODE,6690,6460,6527,6438
EN,R5.0,ATTR,4,1,1,1,20
EN,R5.0,NODE,6459,6471,6511,6437
! ... 45242 like lines cut
SFE,268,4,PRES,1,R5.0
              10
SFE,307,3,PRES,1,R5.0
              10
SFE,323,3,PRES,1,R5.0
              10
SFE,699,4,PRES,1,R5.0
              10
SFE,847,3,PRES,1,R5.0
              10
SFE,898,4,PRES,1,R5.0
              10
SFE,986,3,PRES,1,R5.0
              10
SFE,1185,3,PRES,1,R5.0
              10
SFE,1222,4,PRES,1,R5.0
              10
SFE,1230,4,PRES,1,R5.0
              10
SFE,1267,3,PRES,1,R5.0
              10
SFE,1477,3,PRES,1,R5.0
              10
SFE,1586,4,PRES,1,R5.0
              10
SFE,1591,4,PRES,1,R5.0
              10
SFE,1613,3,PRES,1,R5.0
              10
SFE,1615,3,PRES,1,R5.0
              10
SFE,1713,3,PRES,1,R5.0
              10
SFE,1715,3,PRES,1,R5.0
              10
SFE,1750,1,PRES,1,R5.0
              10
SFE,1754,3,PRES,1,R5.0
              10
! ... 9176 like lines cut
D,81,UX,0.0
D,81,UY,0.0
D,81,UZ,0.0
D,82,UX,0.0
D,82,UY,0.0
D,82,UZ,0.0
D,83,UX,0.0
D,83,UY,0.0
D,83,UZ,0.0
D,179,UX,0.0
D,179,UY,0.0
D,179,UZ,0.0
D,180,UX,0.0
D,180,UY,0.0
D,180,UZ,0.0
D,181,UX,0.0
D,181,UY,0.0
D,181,UZ,0.0
D,184,UX,0.0
D,184,UY,0.0
D,184,UZ,0.0
D,185,UX,0.0
D,185,UY,0.0
D,185,UZ,0.0
D,186,UX,0.0
D,186,UY,0.0
D,186,UZ,0.0
D,192,UX,0.0
D,192,UY,0.0
D,192,UZ,0.0
D,193,UX,0.0
D,193,UY,0.0
D,193,UZ,0.0
D,194,UX,0.0
D,194,UY,0.0
D,194,UZ,0.0
D,195,UX,0.0
D,195,UY,0.0
D,195,UZ,0.0
D,196,UX,0.0
D,196,UY,0.0
D,196,UZ,0.0
D,197,UX,0.0
D,197,UY,0.0
D,197,UZ,0.0
D,198,UX,0.0
D,198,UY,0.0
D,198,UZ,0.0
D,199,UX,0.0
D,199,UY,0.0
D,199,UZ,0.0
D,200,UX,0.0
D,200,UY,0.0
D,200,UZ,0.0
D,201,UX,0.0
D,201,UY,0.0
D,201,UZ,0.0
D,202,UX,0.0
D,202,UY,0.0
D,202,UZ,0.0
! ... 384 like lines cut
